
---------- Begin Simulation Statistics ----------
sim_seconds                                  0.534155                       # Number of seconds simulated
sim_ticks                                534155114000                       # Number of ticks simulated
final_tick                               534155114000                       # Number of ticks from beginning of simulation (restored from checkpoints and never reset)
sim_freq                                 1000000000000                       # Frequency of simulated ticks
host_inst_rate                                1240943                       # Simulator instruction rate (inst/s)
host_op_rate                                  2023780                       # Simulator op (including micro ops) rate (op/s)
host_tick_rate                             2660343847                       # Simulator tick rate (ticks/s)
host_mem_usage                                 621600                       # Number of bytes of host memory used
host_seconds                                   200.78                       # Real time elapsed on the host
sim_insts                                   249161735                       # Number of instructions simulated
sim_ops                                     406343042                       # Number of ops (including micro ops) simulated
system.voltage_domain.voltage                       1                       # Voltage in Volts
system.clk_domain.clock                          1000                       # Clock period in ticks
system.mem_ctrls.pwrStateResidencyTicks::UNDEFINED 534155114000                       # Cumulative time (in ticks) in various power states
system.mem_ctrls.bytes_read::cpu.inst           22592                       # Number of bytes read from this memory
system.mem_ctrls.bytes_read::cpu.data         6876864                       # Number of bytes read from this memory
system.mem_ctrls.bytes_read::total            6899456                       # Number of bytes read from this memory
system.mem_ctrls.bytes_inst_read::cpu.inst        22592                       # Number of instructions bytes read from this memory
system.mem_ctrls.bytes_inst_read::total         22592                       # Number of instructions bytes read from this memory
system.mem_ctrls.bytes_written::writebacks      5685824                       # Number of bytes written to this memory
system.mem_ctrls.bytes_written::total         5685824                       # Number of bytes written to this memory
system.mem_ctrls.num_reads::cpu.inst              353                       # Number of read requests responded to by this memory
system.mem_ctrls.num_reads::cpu.data           107451                       # Number of read requests responded to by this memory
system.mem_ctrls.num_reads::total              107804                       # Number of read requests responded to by this memory
system.mem_ctrls.num_writes::writebacks         88841                       # Number of write requests responded to by this memory
system.mem_ctrls.num_writes::total              88841                       # Number of write requests responded to by this memory
system.mem_ctrls.bw_read::cpu.inst              42295                       # Total read bandwidth from this memory (bytes/s)
system.mem_ctrls.bw_read::cpu.data           12874283                       # Total read bandwidth from this memory (bytes/s)
system.mem_ctrls.bw_read::total              12916578                       # Total read bandwidth from this memory (bytes/s)
system.mem_ctrls.bw_inst_read::cpu.inst         42295                       # Instruction read bandwidth from this memory (bytes/s)
system.mem_ctrls.bw_inst_read::total            42295                       # Instruction read bandwidth from this memory (bytes/s)
system.mem_ctrls.bw_write::writebacks        10644519                       # Write bandwidth from this memory (bytes/s)
system.mem_ctrls.bw_write::total             10644519                       # Write bandwidth from this memory (bytes/s)
system.mem_ctrls.bw_total::writebacks        10644519                       # Total bandwidth to/from this memory (bytes/s)
system.mem_ctrls.bw_total::cpu.inst             42295                       # Total bandwidth to/from this memory (bytes/s)
system.mem_ctrls.bw_total::cpu.data          12874283                       # Total bandwidth to/from this memory (bytes/s)
system.mem_ctrls.bw_total::total             23561096                       # Total bandwidth to/from this memory (bytes/s)
system.pwrStateResidencyTicks::UNDEFINED 534155114000                       # Cumulative time (in ticks) in various power states
system.cpu_voltage_domain.voltage                   1                       # Voltage in Volts
system.cpu_clk_domain.clock                       500                       # Clock period in ticks
system.cpu.dtb.walker.pwrStateResidencyTicks::UNDEFINED 534155114000                       # Cumulative time (in ticks) in various power states
system.cpu.dtb.rdAccesses                   118033992                       # TLB accesses on read requests
system.cpu.dtb.wrAccesses                    31915272                       # TLB accesses on write requests
system.cpu.dtb.rdMisses                          2737                       # TLB misses on read requests
system.cpu.dtb.wrMisses                           497                       # TLB misses on write requests
system.cpu.apic_clk_domain.clock                 8000                       # Clock period in ticks
system.cpu.interrupts.pwrStateResidencyTicks::UNDEFINED 534155114000                       # Cumulative time (in ticks) in various power states
system.cpu.itb.walker.pwrStateResidencyTicks::UNDEFINED 534155114000                       # Cumulative time (in ticks) in various power states
system.cpu.itb.rdAccesses                           0                       # TLB accesses on read requests
system.cpu.itb.wrAccesses                   335229882                       # TLB accesses on write requests
system.cpu.itb.rdMisses                             0                       # TLB misses on read requests
system.cpu.itb.wrMisses                            36                       # TLB misses on write requests
system.cpu.workload.numSyscalls                     9                       # Number of system calls
system.cpu.pwrStateResidencyTicks::ON    534155114000                       # Cumulative time (in ticks) in various power states
system.cpu.numCycles                       1068310228                       # number of cpu cycles simulated
system.cpu.numWorkItemsStarted                      0                       # number of work items this cpu started
system.cpu.numWorkItemsCompleted                    0                       # number of work items this cpu completed
system.cpu.committedInsts                   249161735                       # Number of instructions committed
system.cpu.committedOps                     406343042                       # Number of ops (including micro ops) committed
system.cpu.num_int_alu_accesses             403870578                       # Number of integer alu accesses
system.cpu.num_fp_alu_accesses                   1943                       # Number of float alu accesses
system.cpu.num_vec_alu_accesses                     0                       # Number of vector alu accesses
system.cpu.num_func_calls                     4727228                       # number of times a function call or return occured
system.cpu.num_conditional_control_insts     23353243                       # number of instructions that are conditional controls
system.cpu.num_int_insts                    403870578                       # number of integer instructions
system.cpu.num_fp_insts                          1943                       # number of float instructions
system.cpu.num_vec_insts                            0                       # number of vector instructions
system.cpu.num_int_register_reads           905631451                       # number of times the integer registers were read
system.cpu.num_int_register_writes          351334395                       # number of times the integer registers were written
system.cpu.num_fp_register_reads                 3767                       # number of times the floating registers were read
system.cpu.num_fp_register_writes                1480                       # number of times the floating registers were written
system.cpu.num_vec_register_reads                   0                       # number of times the vector registers were read
system.cpu.num_vec_register_writes                  0                       # number of times the vector registers were written
system.cpu.num_cc_register_reads            149131738                       # number of times the CC registers were read
system.cpu.num_cc_register_writes           139496765                       # number of times the CC registers were written
system.cpu.num_mem_refs                     149949261                       # number of memory refs
system.cpu.num_load_insts                   118033989                       # Number of load instructions
system.cpu.num_store_insts                   31915272                       # Number of store instructions
system.cpu.num_idle_cycles                          0                       # Number of idle cycles
system.cpu.num_busy_cycles                 1068310228                       # Number of busy cycles
system.cpu.not_idle_fraction                        1                       # Percentage of non-idle cycles
system.cpu.idle_fraction                            0                       # Percentage of idle cycles
system.cpu.Branches                          30316574                       # Number of branches fetched
system.cpu.op_class::No_OpClass                744058      0.18%      0.18% # Class of executed instruction
system.cpu.op_class::IntAlu                 251172917     61.81%     62.00% # Class of executed instruction
system.cpu.op_class::IntMult                        4      0.00%     62.00% # Class of executed instruction
system.cpu.op_class::IntDiv                   4475842      1.10%     63.10% # Class of executed instruction
system.cpu.op_class::FloatAdd                      10      0.00%     63.10% # Class of executed instruction
system.cpu.op_class::FloatCmp                       0      0.00%     63.10% # Class of executed instruction
system.cpu.op_class::FloatCvt                       0      0.00%     63.10% # Class of executed instruction
system.cpu.op_class::FloatMult                      0      0.00%     63.10% # Class of executed instruction
system.cpu.op_class::FloatMultAcc                   0      0.00%     63.10% # Class of executed instruction
system.cpu.op_class::FloatDiv                       0      0.00%     63.10% # Class of executed instruction
system.cpu.op_class::FloatMisc                      0      0.00%     63.10% # Class of executed instruction
system.cpu.op_class::FloatSqrt                      0      0.00%     63.10% # Class of executed instruction
system.cpu.op_class::SimdAdd                      374      0.00%     63.10% # Class of executed instruction
system.cpu.op_class::SimdAddAcc                     0      0.00%     63.10% # Class of executed instruction
system.cpu.op_class::SimdAlu                       68      0.00%     63.10% # Class of executed instruction
system.cpu.op_class::SimdCmp                        0      0.00%     63.10% # Class of executed instruction
system.cpu.op_class::SimdCvt                      108      0.00%     63.10% # Class of executed instruction
system.cpu.op_class::SimdMisc                     214      0.00%     63.10% # Class of executed instruction
system.cpu.op_class::SimdMult                       0      0.00%     63.10% # Class of executed instruction
system.cpu.op_class::SimdMultAcc                    0      0.00%     63.10% # Class of executed instruction
system.cpu.op_class::SimdShift                    186      0.00%     63.10% # Class of executed instruction
system.cpu.op_class::SimdShiftAcc                   0      0.00%     63.10% # Class of executed instruction
system.cpu.op_class::SimdSqrt                       0      0.00%     63.10% # Class of executed instruction
system.cpu.op_class::SimdFloatAdd                   0      0.00%     63.10% # Class of executed instruction
system.cpu.op_class::SimdFloatAlu                   0      0.00%     63.10% # Class of executed instruction
system.cpu.op_class::SimdFloatCmp                   0      0.00%     63.10% # Class of executed instruction
system.cpu.op_class::SimdFloatCvt                   0      0.00%     63.10% # Class of executed instruction
system.cpu.op_class::SimdFloatDiv                   0      0.00%     63.10% # Class of executed instruction
system.cpu.op_class::SimdFloatMisc                  0      0.00%     63.10% # Class of executed instruction
system.cpu.op_class::SimdFloatMult                  0      0.00%     63.10% # Class of executed instruction
system.cpu.op_class::SimdFloatMultAcc               0      0.00%     63.10% # Class of executed instruction
system.cpu.op_class::SimdFloatSqrt                  0      0.00%     63.10% # Class of executed instruction
system.cpu.op_class::MemRead                118033933     29.05%     92.15% # Class of executed instruction
system.cpu.op_class::MemWrite                31914857      7.85%    100.00% # Class of executed instruction
system.cpu.op_class::FloatMemRead                  56      0.00%    100.00% # Class of executed instruction
system.cpu.op_class::FloatMemWrite                415      0.00%    100.00% # Class of executed instruction
system.cpu.op_class::IprAccess                      0      0.00%    100.00% # Class of executed instruction
system.cpu.op_class::InstPrefetch                   0      0.00%    100.00% # Class of executed instruction
system.cpu.op_class::total                  406343042                       # Class of executed instruction
system.cpu.dcache.tags.pwrStateResidencyTicks::UNDEFINED 534155114000                       # Cumulative time (in ticks) in various power states
system.cpu.dcache.tags.tagsinuse           511.629770                       # Cycle average of tags in use
system.cpu.dcache.tags.total_refs           149949264                       # Total number of references to valid blocks.
system.cpu.dcache.tags.sampled_refs            352021                       # Sample count of references to valid blocks.
system.cpu.dcache.tags.avg_refs            425.966814                       # Average number of references to valid blocks.
system.cpu.dcache.tags.warmup_cycle            759000                       # Cycle when the warmup percentage was hit.
system.cpu.dcache.tags.occ_blocks::cpu.data   511.629770                       # Average occupied blocks per requestor
system.cpu.dcache.tags.occ_percent::cpu.data     0.999277                       # Average percentage of cache occupancy
system.cpu.dcache.tags.occ_percent::total     0.999277                       # Average percentage of cache occupancy
system.cpu.dcache.tags.occ_task_id_blocks::1024          512                       # Occupied blocks per task id
system.cpu.dcache.tags.age_task_id_blocks_1024::0           10                       # Occupied blocks per task id
system.cpu.dcache.tags.age_task_id_blocks_1024::1           18                       # Occupied blocks per task id
system.cpu.dcache.tags.age_task_id_blocks_1024::2           57                       # Occupied blocks per task id
system.cpu.dcache.tags.age_task_id_blocks_1024::3          427                       # Occupied blocks per task id
system.cpu.dcache.tags.occ_task_id_percent::1024            1                       # Percentage of cache occupancy per task id
system.cpu.dcache.tags.tag_accesses         300250549                       # Number of tag accesses
system.cpu.dcache.tags.data_accesses        300250549                       # Number of data accesses
system.cpu.dcache.pwrStateResidencyTicks::UNDEFINED 534155114000                       # Cumulative time (in ticks) in various power states
system.cpu.dcache.ReadReq_hits::cpu.data    117715220                       # number of ReadReq hits
system.cpu.dcache.ReadReq_hits::total       117715220                       # number of ReadReq hits
system.cpu.dcache.WriteReq_hits::cpu.data     31769018                       # number of WriteReq hits
system.cpu.dcache.WriteReq_hits::total       31769018                       # number of WriteReq hits
system.cpu.dcache.demand_hits::cpu.data     149484238                       # number of demand (read+write) hits
system.cpu.dcache.demand_hits::total        149484238                       # number of demand (read+write) hits
system.cpu.dcache.overall_hits::cpu.data    149484238                       # number of overall hits
system.cpu.dcache.overall_hits::total       149484238                       # number of overall hits
system.cpu.dcache.ReadReq_misses::cpu.data       318772                       # number of ReadReq misses
system.cpu.dcache.ReadReq_misses::total        318772                       # number of ReadReq misses
system.cpu.dcache.WriteReq_misses::cpu.data       146254                       # number of WriteReq misses
system.cpu.dcache.WriteReq_misses::total       146254                       # number of WriteReq misses
system.cpu.dcache.demand_misses::cpu.data       465026                       # number of demand (read+write) misses
system.cpu.dcache.demand_misses::total         465026                       # number of demand (read+write) misses
system.cpu.dcache.overall_misses::cpu.data       465026                       # number of overall misses
system.cpu.dcache.overall_misses::total        465026                       # number of overall misses
system.cpu.dcache.ReadReq_miss_latency::cpu.data  40411336000                       # number of ReadReq miss cycles
system.cpu.dcache.ReadReq_miss_latency::total  40411336000                       # number of ReadReq miss cycles
system.cpu.dcache.WriteReq_miss_latency::cpu.data   8962879000                       # number of WriteReq miss cycles
system.cpu.dcache.WriteReq_miss_latency::total   8962879000                       # number of WriteReq miss cycles
system.cpu.dcache.demand_miss_latency::cpu.data  49374215000                       # number of demand (read+write) miss cycles
system.cpu.dcache.demand_miss_latency::total  49374215000                       # number of demand (read+write) miss cycles
system.cpu.dcache.overall_miss_latency::cpu.data  49374215000                       # number of overall miss cycles
system.cpu.dcache.overall_miss_latency::total  49374215000                       # number of overall miss cycles
system.cpu.dcache.ReadReq_accesses::cpu.data    118033992                       # number of ReadReq accesses(hits+misses)
system.cpu.dcache.ReadReq_accesses::total    118033992                       # number of ReadReq accesses(hits+misses)
system.cpu.dcache.WriteReq_accesses::cpu.data     31915272                       # number of WriteReq accesses(hits+misses)
system.cpu.dcache.WriteReq_accesses::total     31915272                       # number of WriteReq accesses(hits+misses)
system.cpu.dcache.demand_accesses::cpu.data    149949264                       # number of demand (read+write) accesses
system.cpu.dcache.demand_accesses::total    149949264                       # number of demand (read+write) accesses
system.cpu.dcache.overall_accesses::cpu.data    149949264                       # number of overall (read+write) accesses
system.cpu.dcache.overall_accesses::total    149949264                       # number of overall (read+write) accesses
system.cpu.dcache.ReadReq_miss_rate::cpu.data     0.002701                       # miss rate for ReadReq accesses
system.cpu.dcache.ReadReq_miss_rate::total     0.002701                       # miss rate for ReadReq accesses
system.cpu.dcache.WriteReq_miss_rate::cpu.data     0.004583                       # miss rate for WriteReq accesses
system.cpu.dcache.WriteReq_miss_rate::total     0.004583                       # miss rate for WriteReq accesses
system.cpu.dcache.demand_miss_rate::cpu.data     0.003101                       # miss rate for demand accesses
system.cpu.dcache.demand_miss_rate::total     0.003101                       # miss rate for demand accesses
system.cpu.dcache.overall_miss_rate::cpu.data     0.003101                       # miss rate for overall accesses
system.cpu.dcache.overall_miss_rate::total     0.003101                       # miss rate for overall accesses
system.cpu.dcache.ReadReq_avg_miss_latency::cpu.data 126771.912213                       # average ReadReq miss latency
system.cpu.dcache.ReadReq_avg_miss_latency::total 126771.912213                       # average ReadReq miss latency
system.cpu.dcache.WriteReq_avg_miss_latency::cpu.data 61282.966620                       # average WriteReq miss latency
system.cpu.dcache.WriteReq_avg_miss_latency::total 61282.966620                       # average WriteReq miss latency
system.cpu.dcache.demand_avg_miss_latency::cpu.data 106175.170851                       # average overall miss latency
system.cpu.dcache.demand_avg_miss_latency::total 106175.170851                       # average overall miss latency
system.cpu.dcache.overall_avg_miss_latency::cpu.data 106175.170851                       # average overall miss latency
system.cpu.dcache.overall_avg_miss_latency::total 106175.170851                       # average overall miss latency
system.cpu.dcache.blocked_cycles::no_mshrs            0                       # number of cycles access was blocked
system.cpu.dcache.blocked_cycles::no_targets            0                       # number of cycles access was blocked
system.cpu.dcache.blocked::no_mshrs                 0                       # number of cycles access was blocked
system.cpu.dcache.blocked::no_targets               0                       # number of cycles access was blocked
system.cpu.dcache.avg_blocked_cycles::no_mshrs          nan                       # average number of cycles each access was blocked
system.cpu.dcache.avg_blocked_cycles::no_targets          nan                       # average number of cycles each access was blocked
system.cpu.dcache.writebacks::writebacks       321030                       # number of writebacks
system.cpu.dcache.writebacks::total            321030                       # number of writebacks
system.cpu.dcache.ReadReq_mshr_misses::cpu.data       318772                       # number of ReadReq MSHR misses
system.cpu.dcache.ReadReq_mshr_misses::total       318772                       # number of ReadReq MSHR misses
system.cpu.dcache.WriteReq_mshr_misses::cpu.data       146254                       # number of WriteReq MSHR misses
system.cpu.dcache.WriteReq_mshr_misses::total       146254                       # number of WriteReq MSHR misses
system.cpu.dcache.demand_mshr_misses::cpu.data       465026                       # number of demand (read+write) MSHR misses
system.cpu.dcache.demand_mshr_misses::total       465026                       # number of demand (read+write) MSHR misses
system.cpu.dcache.overall_mshr_misses::cpu.data       465026                       # number of overall MSHR misses
system.cpu.dcache.overall_mshr_misses::total       465026                       # number of overall MSHR misses
system.cpu.dcache.ReadReq_mshr_miss_latency::cpu.data  40092564000                       # number of ReadReq MSHR miss cycles
system.cpu.dcache.ReadReq_mshr_miss_latency::total  40092564000                       # number of ReadReq MSHR miss cycles
system.cpu.dcache.WriteReq_mshr_miss_latency::cpu.data   8816625000                       # number of WriteReq MSHR miss cycles
system.cpu.dcache.WriteReq_mshr_miss_latency::total   8816625000                       # number of WriteReq MSHR miss cycles
system.cpu.dcache.demand_mshr_miss_latency::cpu.data  48909189000                       # number of demand (read+write) MSHR miss cycles
system.cpu.dcache.demand_mshr_miss_latency::total  48909189000                       # number of demand (read+write) MSHR miss cycles
system.cpu.dcache.overall_mshr_miss_latency::cpu.data  48909189000                       # number of overall MSHR miss cycles
system.cpu.dcache.overall_mshr_miss_latency::total  48909189000                       # number of overall MSHR miss cycles
system.cpu.dcache.ReadReq_mshr_miss_rate::cpu.data     0.002701                       # mshr miss rate for ReadReq accesses
system.cpu.dcache.ReadReq_mshr_miss_rate::total     0.002701                       # mshr miss rate for ReadReq accesses
system.cpu.dcache.WriteReq_mshr_miss_rate::cpu.data     0.004583                       # mshr miss rate for WriteReq accesses
system.cpu.dcache.WriteReq_mshr_miss_rate::total     0.004583                       # mshr miss rate for WriteReq accesses
system.cpu.dcache.demand_mshr_miss_rate::cpu.data     0.003101                       # mshr miss rate for demand accesses
system.cpu.dcache.demand_mshr_miss_rate::total     0.003101                       # mshr miss rate for demand accesses
system.cpu.dcache.overall_mshr_miss_rate::cpu.data     0.003101                       # mshr miss rate for overall accesses
system.cpu.dcache.overall_mshr_miss_rate::total     0.003101                       # mshr miss rate for overall accesses
system.cpu.dcache.ReadReq_avg_mshr_miss_latency::cpu.data 125771.912213                       # average ReadReq mshr miss latency
system.cpu.dcache.ReadReq_avg_mshr_miss_latency::total 125771.912213                       # average ReadReq mshr miss latency
system.cpu.dcache.WriteReq_avg_mshr_miss_latency::cpu.data 60282.966620                       # average WriteReq mshr miss latency
system.cpu.dcache.WriteReq_avg_mshr_miss_latency::total 60282.966620                       # average WriteReq mshr miss latency
system.cpu.dcache.demand_avg_mshr_miss_latency::cpu.data 105175.170851                       # average overall mshr miss latency
system.cpu.dcache.demand_avg_mshr_miss_latency::total 105175.170851                       # average overall mshr miss latency
system.cpu.dcache.overall_avg_mshr_miss_latency::cpu.data 105175.170851                       # average overall mshr miss latency
system.cpu.dcache.overall_avg_mshr_miss_latency::total 105175.170851                       # average overall mshr miss latency
system.cpu.dcache.replacements                 351509                       # number of replacements
system.cpu.dtb_walker_cache.tags.pwrStateResidencyTicks::UNDEFINED 534155114000                       # Cumulative time (in ticks) in various power states
system.cpu.dtb_walker_cache.tags.tagsinuse            0                       # Cycle average of tags in use
system.cpu.dtb_walker_cache.tags.total_refs            0                       # Total number of references to valid blocks.
system.cpu.dtb_walker_cache.tags.sampled_refs            0                       # Sample count of references to valid blocks.
system.cpu.dtb_walker_cache.tags.avg_refs          nan                       # Average number of references to valid blocks.
system.cpu.dtb_walker_cache.tags.warmup_cycle            0                       # Cycle when the warmup percentage was hit.
system.cpu.dtb_walker_cache.tags.tag_accesses            0                       # Number of tag accesses
system.cpu.dtb_walker_cache.tags.data_accesses            0                       # Number of data accesses
system.cpu.dtb_walker_cache.pwrStateResidencyTicks::UNDEFINED 534155114000                       # Cumulative time (in ticks) in various power states
system.cpu.dtb_walker_cache.blocked_cycles::no_mshrs            0                       # number of cycles access was blocked
system.cpu.dtb_walker_cache.blocked_cycles::no_targets            0                       # number of cycles access was blocked
system.cpu.dtb_walker_cache.blocked::no_mshrs            0                       # number of cycles access was blocked
system.cpu.dtb_walker_cache.blocked::no_targets            0                       # number of cycles access was blocked
system.cpu.dtb_walker_cache.avg_blocked_cycles::no_mshrs          nan                       # average number of cycles each access was blocked
system.cpu.dtb_walker_cache.avg_blocked_cycles::no_targets          nan                       # average number of cycles each access was blocked
system.cpu.dtb_walker_cache.replacements            0                       # number of replacements
system.cpu.icache.tags.pwrStateResidencyTicks::UNDEFINED 534155114000                       # Cumulative time (in ticks) in various power states
system.cpu.icache.tags.tagsinuse           279.463338                       # Cycle average of tags in use
system.cpu.icache.tags.total_refs           335229882                       # Total number of references to valid blocks.
system.cpu.icache.tags.sampled_refs               353                       # Sample count of references to valid blocks.
system.cpu.icache.tags.avg_refs          949659.722380                       # Average number of references to valid blocks.
system.cpu.icache.tags.warmup_cycle            439000                       # Cycle when the warmup percentage was hit.
system.cpu.icache.tags.occ_blocks::cpu.inst   279.463338                       # Average occupied blocks per requestor
system.cpu.icache.tags.occ_percent::cpu.inst     0.545827                       # Average percentage of cache occupancy
system.cpu.icache.tags.occ_percent::total     0.545827                       # Average percentage of cache occupancy
system.cpu.icache.tags.occ_task_id_blocks::1024          308                       # Occupied blocks per task id
system.cpu.icache.tags.age_task_id_blocks_1024::0           15                       # Occupied blocks per task id
system.cpu.icache.tags.age_task_id_blocks_1024::1           23                       # Occupied blocks per task id
system.cpu.icache.tags.age_task_id_blocks_1024::4          270                       # Occupied blocks per task id
system.cpu.icache.tags.occ_task_id_percent::1024     0.601562                       # Percentage of cache occupancy per task id
system.cpu.icache.tags.tag_accesses         670460117                       # Number of tag accesses
system.cpu.icache.tags.data_accesses        670460117                       # Number of data accesses
system.cpu.icache.pwrStateResidencyTicks::UNDEFINED 534155114000                       # Cumulative time (in ticks) in various power states
system.cpu.icache.ReadReq_hits::cpu.inst    335229529                       # number of ReadReq hits
system.cpu.icache.ReadReq_hits::total       335229529                       # number of ReadReq hits
system.cpu.icache.demand_hits::cpu.inst     335229529                       # number of demand (read+write) hits
system.cpu.icache.demand_hits::total        335229529                       # number of demand (read+write) hits
system.cpu.icache.overall_hits::cpu.inst    335229529                       # number of overall hits
system.cpu.icache.overall_hits::total       335229529                       # number of overall hits
system.cpu.icache.ReadReq_misses::cpu.inst          353                       # number of ReadReq misses
system.cpu.icache.ReadReq_misses::total           353                       # number of ReadReq misses
system.cpu.icache.demand_misses::cpu.inst          353                       # number of demand (read+write) misses
system.cpu.icache.demand_misses::total            353                       # number of demand (read+write) misses
system.cpu.icache.overall_misses::cpu.inst          353                       # number of overall misses
system.cpu.icache.overall_misses::total           353                       # number of overall misses
system.cpu.icache.ReadReq_miss_latency::cpu.inst     67135000                       # number of ReadReq miss cycles
system.cpu.icache.ReadReq_miss_latency::total     67135000                       # number of ReadReq miss cycles
system.cpu.icache.demand_miss_latency::cpu.inst     67135000                       # number of demand (read+write) miss cycles
system.cpu.icache.demand_miss_latency::total     67135000                       # number of demand (read+write) miss cycles
system.cpu.icache.overall_miss_latency::cpu.inst     67135000                       # number of overall miss cycles
system.cpu.icache.overall_miss_latency::total     67135000                       # number of overall miss cycles
system.cpu.icache.ReadReq_accesses::cpu.inst    335229882                       # number of ReadReq accesses(hits+misses)
system.cpu.icache.ReadReq_accesses::total    335229882                       # number of ReadReq accesses(hits+misses)
system.cpu.icache.demand_accesses::cpu.inst    335229882                       # number of demand (read+write) accesses
system.cpu.icache.demand_accesses::total    335229882                       # number of demand (read+write) accesses
system.cpu.icache.overall_accesses::cpu.inst    335229882                       # number of overall (read+write) accesses
system.cpu.icache.overall_accesses::total    335229882                       # number of overall (read+write) accesses
system.cpu.icache.ReadReq_miss_rate::cpu.inst     0.000001                       # miss rate for ReadReq accesses
system.cpu.icache.ReadReq_miss_rate::total     0.000001                       # miss rate for ReadReq accesses
system.cpu.icache.demand_miss_rate::cpu.inst     0.000001                       # miss rate for demand accesses
system.cpu.icache.demand_miss_rate::total     0.000001                       # miss rate for demand accesses
system.cpu.icache.overall_miss_rate::cpu.inst     0.000001                       # miss rate for overall accesses
system.cpu.icache.overall_miss_rate::total     0.000001                       # miss rate for overall accesses
system.cpu.icache.ReadReq_avg_miss_latency::cpu.inst 190184.135977                       # average ReadReq miss latency
system.cpu.icache.ReadReq_avg_miss_latency::total 190184.135977                       # average ReadReq miss latency
system.cpu.icache.demand_avg_miss_latency::cpu.inst 190184.135977                       # average overall miss latency
system.cpu.icache.demand_avg_miss_latency::total 190184.135977                       # average overall miss latency
system.cpu.icache.overall_avg_miss_latency::cpu.inst 190184.135977                       # average overall miss latency
system.cpu.icache.overall_avg_miss_latency::total 190184.135977                       # average overall miss latency
system.cpu.icache.blocked_cycles::no_mshrs            0                       # number of cycles access was blocked
system.cpu.icache.blocked_cycles::no_targets            0                       # number of cycles access was blocked
system.cpu.icache.blocked::no_mshrs                 0                       # number of cycles access was blocked
system.cpu.icache.blocked::no_targets               0                       # number of cycles access was blocked
system.cpu.icache.avg_blocked_cycles::no_mshrs          nan                       # average number of cycles each access was blocked
system.cpu.icache.avg_blocked_cycles::no_targets          nan                       # average number of cycles each access was blocked
system.cpu.icache.writebacks::writebacks           45                       # number of writebacks
system.cpu.icache.writebacks::total                45                       # number of writebacks
system.cpu.icache.ReadReq_mshr_misses::cpu.inst          353                       # number of ReadReq MSHR misses
system.cpu.icache.ReadReq_mshr_misses::total          353                       # number of ReadReq MSHR misses
system.cpu.icache.demand_mshr_misses::cpu.inst          353                       # number of demand (read+write) MSHR misses
system.cpu.icache.demand_mshr_misses::total          353                       # number of demand (read+write) MSHR misses
system.cpu.icache.overall_mshr_misses::cpu.inst          353                       # number of overall MSHR misses
system.cpu.icache.overall_mshr_misses::total          353                       # number of overall MSHR misses
system.cpu.icache.ReadReq_mshr_miss_latency::cpu.inst     66782000                       # number of ReadReq MSHR miss cycles
system.cpu.icache.ReadReq_mshr_miss_latency::total     66782000                       # number of ReadReq MSHR miss cycles
system.cpu.icache.demand_mshr_miss_latency::cpu.inst     66782000                       # number of demand (read+write) MSHR miss cycles
system.cpu.icache.demand_mshr_miss_latency::total     66782000                       # number of demand (read+write) MSHR miss cycles
system.cpu.icache.overall_mshr_miss_latency::cpu.inst     66782000                       # number of overall MSHR miss cycles
system.cpu.icache.overall_mshr_miss_latency::total     66782000                       # number of overall MSHR miss cycles
system.cpu.icache.ReadReq_mshr_miss_rate::cpu.inst     0.000001                       # mshr miss rate for ReadReq accesses
system.cpu.icache.ReadReq_mshr_miss_rate::total     0.000001                       # mshr miss rate for ReadReq accesses
system.cpu.icache.demand_mshr_miss_rate::cpu.inst     0.000001                       # mshr miss rate for demand accesses
system.cpu.icache.demand_mshr_miss_rate::total     0.000001                       # mshr miss rate for demand accesses
system.cpu.icache.overall_mshr_miss_rate::cpu.inst     0.000001                       # mshr miss rate for overall accesses
system.cpu.icache.overall_mshr_miss_rate::total     0.000001                       # mshr miss rate for overall accesses
system.cpu.icache.ReadReq_avg_mshr_miss_latency::cpu.inst 189184.135977                       # average ReadReq mshr miss latency
system.cpu.icache.ReadReq_avg_mshr_miss_latency::total 189184.135977                       # average ReadReq mshr miss latency
system.cpu.icache.demand_avg_mshr_miss_latency::cpu.inst 189184.135977                       # average overall mshr miss latency
system.cpu.icache.demand_avg_mshr_miss_latency::total 189184.135977                       # average overall mshr miss latency
system.cpu.icache.overall_avg_mshr_miss_latency::cpu.inst 189184.135977                       # average overall mshr miss latency
system.cpu.icache.overall_avg_mshr_miss_latency::total 189184.135977                       # average overall mshr miss latency
system.cpu.icache.replacements                     45                       # number of replacements
system.cpu.itb_walker_cache.tags.pwrStateResidencyTicks::UNDEFINED 534155114000                       # Cumulative time (in ticks) in various power states
system.cpu.itb_walker_cache.tags.tagsinuse            0                       # Cycle average of tags in use
system.cpu.itb_walker_cache.tags.total_refs            0                       # Total number of references to valid blocks.
system.cpu.itb_walker_cache.tags.sampled_refs            0                       # Sample count of references to valid blocks.
system.cpu.itb_walker_cache.tags.avg_refs          nan                       # Average number of references to valid blocks.
system.cpu.itb_walker_cache.tags.warmup_cycle            0                       # Cycle when the warmup percentage was hit.
system.cpu.itb_walker_cache.tags.tag_accesses            0                       # Number of tag accesses
system.cpu.itb_walker_cache.tags.data_accesses            0                       # Number of data accesses
system.cpu.itb_walker_cache.pwrStateResidencyTicks::UNDEFINED 534155114000                       # Cumulative time (in ticks) in various power states
system.cpu.itb_walker_cache.blocked_cycles::no_mshrs            0                       # number of cycles access was blocked
system.cpu.itb_walker_cache.blocked_cycles::no_targets            0                       # number of cycles access was blocked
system.cpu.itb_walker_cache.blocked::no_mshrs            0                       # number of cycles access was blocked
system.cpu.itb_walker_cache.blocked::no_targets            0                       # number of cycles access was blocked
system.cpu.itb_walker_cache.avg_blocked_cycles::no_mshrs          nan                       # average number of cycles each access was blocked
system.cpu.itb_walker_cache.avg_blocked_cycles::no_targets          nan                       # average number of cycles each access was blocked
system.cpu.itb_walker_cache.replacements            0                       # number of replacements
system.l2.tags.pwrStateResidencyTicks::UNDEFINED 534155114000                       # Cumulative time (in ticks) in various power states
system.l2.tags.tagsinuse                  2043.027329                       # Cycle average of tags in use
system.l2.tags.total_refs                      816933                       # Total number of references to valid blocks.
system.l2.tags.sampled_refs                    248815                       # Sample count of references to valid blocks.
system.l2.tags.avg_refs                      3.283295                       # Average number of references to valid blocks.
system.l2.tags.warmup_cycle                    428500                       # Cycle when the warmup percentage was hit.
system.l2.tags.occ_blocks::writebacks        1.036705                       # Average occupied blocks per requestor
system.l2.tags.occ_blocks::cpu.inst          1.900711                       # Average occupied blocks per requestor
system.l2.tags.occ_blocks::cpu.data       2040.089913                       # Average occupied blocks per requestor
system.l2.tags.occ_percent::writebacks       0.000506                       # Average percentage of cache occupancy
system.l2.tags.occ_percent::cpu.inst         0.000928                       # Average percentage of cache occupancy
system.l2.tags.occ_percent::cpu.data         0.996138                       # Average percentage of cache occupancy
system.l2.tags.occ_percent::total            0.997572                       # Average percentage of cache occupancy
system.l2.tags.occ_task_id_blocks::1024          2048                       # Occupied blocks per task id
system.l2.tags.age_task_id_blocks_1024::0           30                       # Occupied blocks per task id
system.l2.tags.age_task_id_blocks_1024::1           45                       # Occupied blocks per task id
system.l2.tags.age_task_id_blocks_1024::3           53                       # Occupied blocks per task id
system.l2.tags.age_task_id_blocks_1024::4         1920                       # Occupied blocks per task id
system.l2.tags.occ_task_id_percent::1024            1                       # Percentage of cache occupancy per task id
system.l2.tags.tag_accesses                   6784279                       # Number of tag accesses
system.l2.tags.data_accesses                  6784279                       # Number of data accesses
system.l2.pwrStateResidencyTicks::UNDEFINED 534155114000                       # Cumulative time (in ticks) in various power states
system.l2.WritebackDirty_hits::writebacks       321030                       # number of WritebackDirty hits
system.l2.WritebackDirty_hits::total           321030                       # number of WritebackDirty hits
system.l2.WritebackClean_hits::writebacks           45                       # number of WritebackClean hits
system.l2.WritebackClean_hits::total               45                       # number of WritebackClean hits
system.l2.UpgradeReq_hits::cpu.data            113005                       # number of UpgradeReq hits
system.l2.UpgradeReq_hits::total               113005                       # number of UpgradeReq hits
system.l2.ReadExReq_hits::cpu.data               1436                       # number of ReadExReq hits
system.l2.ReadExReq_hits::total                  1436                       # number of ReadExReq hits
system.l2.ReadSharedReq_hits::cpu.data         102182                       # number of ReadSharedReq hits
system.l2.ReadSharedReq_hits::total            102182                       # number of ReadSharedReq hits
system.l2.demand_hits::cpu.data                103618                       # number of demand (read+write) hits
system.l2.demand_hits::total                   103618                       # number of demand (read+write) hits
system.l2.overall_hits::cpu.data               103618                       # number of overall hits
system.l2.overall_hits::total                  103618                       # number of overall hits
system.l2.ReadExReq_misses::cpu.data            31813                       # number of ReadExReq misses
system.l2.ReadExReq_misses::total               31813                       # number of ReadExReq misses
system.l2.ReadCleanReq_misses::cpu.inst           353                       # number of ReadCleanReq misses
system.l2.ReadCleanReq_misses::total              353                       # number of ReadCleanReq misses
system.l2.ReadSharedReq_misses::cpu.data       216590                       # number of ReadSharedReq misses
system.l2.ReadSharedReq_misses::total          216590                       # number of ReadSharedReq misses
system.l2.demand_misses::cpu.inst                 353                       # number of demand (read+write) misses
system.l2.demand_misses::cpu.data              248403                       # number of demand (read+write) misses
system.l2.demand_misses::total                 248756                       # number of demand (read+write) misses
system.l2.overall_misses::cpu.inst                353                       # number of overall misses
system.l2.overall_misses::cpu.data             248403                       # number of overall misses
system.l2.overall_misses::total                248756                       # number of overall misses
system.l2.ReadExReq_miss_latency::cpu.data   7395612500                       # number of ReadExReq miss cycles
system.l2.ReadExReq_miss_latency::total    7395612500                       # number of ReadExReq miss cycles
system.l2.ReadCleanReq_miss_latency::cpu.inst     66250500                       # number of ReadCleanReq miss cycles
system.l2.ReadCleanReq_miss_latency::total     66250500                       # number of ReadCleanReq miss cycles
system.l2.ReadSharedReq_miss_latency::cpu.data  38541494500                       # number of ReadSharedReq miss cycles
system.l2.ReadSharedReq_miss_latency::total  38541494500                       # number of ReadSharedReq miss cycles
system.l2.demand_miss_latency::cpu.inst      66250500                       # number of demand (read+write) miss cycles
system.l2.demand_miss_latency::cpu.data   45937107000                       # number of demand (read+write) miss cycles
system.l2.demand_miss_latency::total      46003357500                       # number of demand (read+write) miss cycles
system.l2.overall_miss_latency::cpu.inst     66250500                       # number of overall miss cycles
system.l2.overall_miss_latency::cpu.data  45937107000                       # number of overall miss cycles
system.l2.overall_miss_latency::total     46003357500                       # number of overall miss cycles
system.l2.WritebackDirty_accesses::writebacks       321030                       # number of WritebackDirty accesses(hits+misses)
system.l2.WritebackDirty_accesses::total       321030                       # number of WritebackDirty accesses(hits+misses)
system.l2.WritebackClean_accesses::writebacks           45                       # number of WritebackClean accesses(hits+misses)
system.l2.WritebackClean_accesses::total           45                       # number of WritebackClean accesses(hits+misses)
system.l2.UpgradeReq_accesses::cpu.data        113005                       # number of UpgradeReq accesses(hits+misses)
system.l2.UpgradeReq_accesses::total           113005                       # number of UpgradeReq accesses(hits+misses)
system.l2.ReadExReq_accesses::cpu.data          33249                       # number of ReadExReq accesses(hits+misses)
system.l2.ReadExReq_accesses::total             33249                       # number of ReadExReq accesses(hits+misses)
system.l2.ReadCleanReq_accesses::cpu.inst          353                       # number of ReadCleanReq accesses(hits+misses)
system.l2.ReadCleanReq_accesses::total            353                       # number of ReadCleanReq accesses(hits+misses)
system.l2.ReadSharedReq_accesses::cpu.data       318772                       # number of ReadSharedReq accesses(hits+misses)
system.l2.ReadSharedReq_accesses::total        318772                       # number of ReadSharedReq accesses(hits+misses)
system.l2.demand_accesses::cpu.inst               353                       # number of demand (read+write) accesses
system.l2.demand_accesses::cpu.data            352021                       # number of demand (read+write) accesses
system.l2.demand_accesses::total               352374                       # number of demand (read+write) accesses
system.l2.overall_accesses::cpu.inst              353                       # number of overall (read+write) accesses
system.l2.overall_accesses::cpu.data           352021                       # number of overall (read+write) accesses
system.l2.overall_accesses::total              352374                       # number of overall (read+write) accesses
system.l2.ReadExReq_miss_rate::cpu.data      0.956811                       # miss rate for ReadExReq accesses
system.l2.ReadExReq_miss_rate::total         0.956811                       # miss rate for ReadExReq accesses
system.l2.ReadCleanReq_miss_rate::cpu.inst            1                       # miss rate for ReadCleanReq accesses
system.l2.ReadCleanReq_miss_rate::total             1                       # miss rate for ReadCleanReq accesses
system.l2.ReadSharedReq_miss_rate::cpu.data     0.679451                       # miss rate for ReadSharedReq accesses
system.l2.ReadSharedReq_miss_rate::total     0.679451                       # miss rate for ReadSharedReq accesses
system.l2.demand_miss_rate::cpu.inst                1                       # miss rate for demand accesses
system.l2.demand_miss_rate::cpu.data         0.705648                       # miss rate for demand accesses
system.l2.demand_miss_rate::total            0.705943                       # miss rate for demand accesses
system.l2.overall_miss_rate::cpu.inst               1                       # miss rate for overall accesses
system.l2.overall_miss_rate::cpu.data        0.705648                       # miss rate for overall accesses
system.l2.overall_miss_rate::total           0.705943                       # miss rate for overall accesses
system.l2.ReadExReq_avg_miss_latency::cpu.data 232471.395342                       # average ReadExReq miss latency
system.l2.ReadExReq_avg_miss_latency::total 232471.395342                       # average ReadExReq miss latency
system.l2.ReadCleanReq_avg_miss_latency::cpu.inst 187678.470255                       # average ReadCleanReq miss latency
system.l2.ReadCleanReq_avg_miss_latency::total 187678.470255                       # average ReadCleanReq miss latency
system.l2.ReadSharedReq_avg_miss_latency::cpu.data 177946.786555                       # average ReadSharedReq miss latency
system.l2.ReadSharedReq_avg_miss_latency::total 177946.786555                       # average ReadSharedReq miss latency
system.l2.demand_avg_miss_latency::cpu.inst 187678.470255                       # average overall miss latency
system.l2.demand_avg_miss_latency::cpu.data 184929.759302                       # average overall miss latency
system.l2.demand_avg_miss_latency::total 184933.659892                       # average overall miss latency
system.l2.overall_avg_miss_latency::cpu.inst 187678.470255                       # average overall miss latency
system.l2.overall_avg_miss_latency::cpu.data 184929.759302                       # average overall miss latency
system.l2.overall_avg_miss_latency::total 184933.659892                       # average overall miss latency
system.l2.blocked_cycles::no_mshrs                  0                       # number of cycles access was blocked
system.l2.blocked_cycles::no_targets                0                       # number of cycles access was blocked
system.l2.blocked::no_mshrs                         0                       # number of cycles access was blocked
system.l2.blocked::no_targets                       0                       # number of cycles access was blocked
system.l2.avg_blocked_cycles::no_mshrs            nan                       # average number of cycles each access was blocked
system.l2.avg_blocked_cycles::no_targets          nan                       # average number of cycles each access was blocked
system.l2.writebacks::writebacks               239093                       # number of writebacks
system.l2.writebacks::total                    239093                       # number of writebacks
system.l2.ReadExReq_mshr_misses::cpu.data        31813                       # number of ReadExReq MSHR misses
system.l2.ReadExReq_mshr_misses::total          31813                       # number of ReadExReq MSHR misses
system.l2.ReadCleanReq_mshr_misses::cpu.inst          353                       # number of ReadCleanReq MSHR misses
system.l2.ReadCleanReq_mshr_misses::total          353                       # number of ReadCleanReq MSHR misses
system.l2.ReadSharedReq_mshr_misses::cpu.data       216590                       # number of ReadSharedReq MSHR misses
system.l2.ReadSharedReq_mshr_misses::total       216590                       # number of ReadSharedReq MSHR misses
system.l2.demand_mshr_misses::cpu.inst            353                       # number of demand (read+write) MSHR misses
system.l2.demand_mshr_misses::cpu.data         248403                       # number of demand (read+write) MSHR misses
system.l2.demand_mshr_misses::total            248756                       # number of demand (read+write) MSHR misses
system.l2.overall_mshr_misses::cpu.inst           353                       # number of overall MSHR misses
system.l2.overall_mshr_misses::cpu.data        248403                       # number of overall MSHR misses
system.l2.overall_mshr_misses::total           248756                       # number of overall MSHR misses
system.l2.ReadExReq_mshr_miss_latency::cpu.data   7077482500                       # number of ReadExReq MSHR miss cycles
system.l2.ReadExReq_mshr_miss_latency::total   7077482500                       # number of ReadExReq MSHR miss cycles
system.l2.ReadCleanReq_mshr_miss_latency::cpu.inst     62720500                       # number of ReadCleanReq MSHR miss cycles
system.l2.ReadCleanReq_mshr_miss_latency::total     62720500                       # number of ReadCleanReq MSHR miss cycles
system.l2.ReadSharedReq_mshr_miss_latency::cpu.data  36375594500                       # number of ReadSharedReq MSHR miss cycles
system.l2.ReadSharedReq_mshr_miss_latency::total  36375594500                       # number of ReadSharedReq MSHR miss cycles
system.l2.demand_mshr_miss_latency::cpu.inst     62720500                       # number of demand (read+write) MSHR miss cycles
system.l2.demand_mshr_miss_latency::cpu.data  43453077000                       # number of demand (read+write) MSHR miss cycles
system.l2.demand_mshr_miss_latency::total  43515797500                       # number of demand (read+write) MSHR miss cycles
system.l2.overall_mshr_miss_latency::cpu.inst     62720500                       # number of overall MSHR miss cycles
system.l2.overall_mshr_miss_latency::cpu.data  43453077000                       # number of overall MSHR miss cycles
system.l2.overall_mshr_miss_latency::total  43515797500                       # number of overall MSHR miss cycles
system.l2.ReadExReq_mshr_miss_rate::cpu.data     0.956811                       # mshr miss rate for ReadExReq accesses
system.l2.ReadExReq_mshr_miss_rate::total     0.956811                       # mshr miss rate for ReadExReq accesses
system.l2.ReadCleanReq_mshr_miss_rate::cpu.inst            1                       # mshr miss rate for ReadCleanReq accesses
system.l2.ReadCleanReq_mshr_miss_rate::total            1                       # mshr miss rate for ReadCleanReq accesses
system.l2.ReadSharedReq_mshr_miss_rate::cpu.data     0.679451                       # mshr miss rate for ReadSharedReq accesses
system.l2.ReadSharedReq_mshr_miss_rate::total     0.679451                       # mshr miss rate for ReadSharedReq accesses
system.l2.demand_mshr_miss_rate::cpu.inst            1                       # mshr miss rate for demand accesses
system.l2.demand_mshr_miss_rate::cpu.data     0.705648                       # mshr miss rate for demand accesses
system.l2.demand_mshr_miss_rate::total       0.705943                       # mshr miss rate for demand accesses
system.l2.overall_mshr_miss_rate::cpu.inst            1                       # mshr miss rate for overall accesses
system.l2.overall_mshr_miss_rate::cpu.data     0.705648                       # mshr miss rate for overall accesses
system.l2.overall_mshr_miss_rate::total      0.705943                       # mshr miss rate for overall accesses
system.l2.ReadExReq_avg_mshr_miss_latency::cpu.data 222471.395342                       # average ReadExReq mshr miss latency
system.l2.ReadExReq_avg_mshr_miss_latency::total 222471.395342                       # average ReadExReq mshr miss latency
system.l2.ReadCleanReq_avg_mshr_miss_latency::cpu.inst 177678.470255                       # average ReadCleanReq mshr miss latency
system.l2.ReadCleanReq_avg_mshr_miss_latency::total 177678.470255                       # average ReadCleanReq mshr miss latency
system.l2.ReadSharedReq_avg_mshr_miss_latency::cpu.data 167946.786555                       # average ReadSharedReq mshr miss latency
system.l2.ReadSharedReq_avg_mshr_miss_latency::total 167946.786555                       # average ReadSharedReq mshr miss latency
system.l2.demand_avg_mshr_miss_latency::cpu.inst 177678.470255                       # average overall mshr miss latency
system.l2.demand_avg_mshr_miss_latency::cpu.data 174929.759302                       # average overall mshr miss latency
system.l2.demand_avg_mshr_miss_latency::total 174933.659892                       # average overall mshr miss latency
system.l2.overall_avg_mshr_miss_latency::cpu.inst 177678.470255                       # average overall mshr miss latency
system.l2.overall_avg_mshr_miss_latency::cpu.data 174929.759302                       # average overall mshr miss latency
system.l2.overall_avg_mshr_miss_latency::total 174933.659892                       # average overall mshr miss latency
system.l2.replacements                         246767                       # number of replacements
system.l3.tags.pwrStateResidencyTicks::UNDEFINED 534155114000                       # Cumulative time (in ticks) in various power states
system.l3.tags.tagsinuse                 15896.436095                       # Cycle average of tags in use
system.l3.tags.total_refs                      495194                       # Total number of references to valid blocks.
system.l3.tags.sampled_refs                    107817                       # Sample count of references to valid blocks.
system.l3.tags.avg_refs                      4.592912                       # Average number of references to valid blocks.
system.l3.tags.warmup_cycle                    418000                       # Cycle when the warmup percentage was hit.
system.l3.tags.occ_blocks::writebacks        1.621971                       # Average occupied blocks per requestor
system.l3.tags.occ_blocks::cpu.inst         15.244114                       # Average occupied blocks per requestor
system.l3.tags.occ_blocks::cpu.data      15879.570009                       # Average occupied blocks per requestor
system.l3.tags.occ_percent::writebacks       0.000099                       # Average percentage of cache occupancy
system.l3.tags.occ_percent::cpu.inst         0.000930                       # Average percentage of cache occupancy
system.l3.tags.occ_percent::cpu.data         0.969212                       # Average percentage of cache occupancy
system.l3.tags.occ_percent::total            0.970241                       # Average percentage of cache occupancy
system.l3.tags.occ_task_id_blocks::1024         16384                       # Occupied blocks per task id
system.l3.tags.age_task_id_blocks_1024::0           25                       # Occupied blocks per task id
system.l3.tags.age_task_id_blocks_1024::1           39                       # Occupied blocks per task id
system.l3.tags.age_task_id_blocks_1024::4        16320                       # Occupied blocks per task id
system.l3.tags.occ_task_id_percent::1024            1                       # Percentage of cache occupancy per task id
system.l3.tags.tag_accesses                   1098205                       # Number of tag accesses
system.l3.tags.data_accesses                  1098205                       # Number of data accesses
system.l3.pwrStateResidencyTicks::UNDEFINED 534155114000                       # Cumulative time (in ticks) in various power states
system.l3.WritebackDirty_hits::writebacks       239093                       # number of WritebackDirty hits
system.l3.WritebackDirty_hits::total           239093                       # number of WritebackDirty hits
system.l3.ReadExReq_hits::cpu.data                381                       # number of ReadExReq hits
system.l3.ReadExReq_hits::total                   381                       # number of ReadExReq hits
system.l3.ReadSharedReq_hits::cpu.data         140571                       # number of ReadSharedReq hits
system.l3.ReadSharedReq_hits::total            140571                       # number of ReadSharedReq hits
system.l3.demand_hits::cpu.data                140952                       # number of demand (read+write) hits
system.l3.demand_hits::total                   140952                       # number of demand (read+write) hits
system.l3.overall_hits::cpu.data               140952                       # number of overall hits
system.l3.overall_hits::total                  140952                       # number of overall hits
system.l3.ReadExReq_misses::cpu.data            31432                       # number of ReadExReq misses
system.l3.ReadExReq_misses::total               31432                       # number of ReadExReq misses
system.l3.ReadSharedReq_misses::cpu.inst          353                       # number of ReadSharedReq misses
system.l3.ReadSharedReq_misses::cpu.data        76019                       # number of ReadSharedReq misses
system.l3.ReadSharedReq_misses::total           76372                       # number of ReadSharedReq misses
system.l3.demand_misses::cpu.inst                 353                       # number of demand (read+write) misses
system.l3.demand_misses::cpu.data              107451                       # number of demand (read+write) misses
system.l3.demand_misses::total                 107804                       # number of demand (read+write) misses
system.l3.overall_misses::cpu.inst                353                       # number of overall misses
system.l3.overall_misses::cpu.data             107451                       # number of overall misses
system.l3.overall_misses::total                107804                       # number of overall misses
system.l3.ReadExReq_miss_latency::cpu.data   6723539000                       # number of ReadExReq miss cycles
system.l3.ReadExReq_miss_latency::total    6723539000                       # number of ReadExReq miss cycles
system.l3.ReadSharedReq_miss_latency::cpu.inst     58837500                       # number of ReadSharedReq miss cycles
system.l3.ReadSharedReq_miss_latency::cpu.data  32517109000                       # number of ReadSharedReq miss cycles
system.l3.ReadSharedReq_miss_latency::total  32575946500                       # number of ReadSharedReq miss cycles
system.l3.demand_miss_latency::cpu.inst      58837500                       # number of demand (read+write) miss cycles
system.l3.demand_miss_latency::cpu.data   39240648000                       # number of demand (read+write) miss cycles
system.l3.demand_miss_latency::total      39299485500                       # number of demand (read+write) miss cycles
system.l3.overall_miss_latency::cpu.inst     58837500                       # number of overall miss cycles
system.l3.overall_miss_latency::cpu.data  39240648000                       # number of overall miss cycles
system.l3.overall_miss_latency::total     39299485500                       # number of overall miss cycles
system.l3.WritebackDirty_accesses::writebacks       239093                       # number of WritebackDirty accesses(hits+misses)
system.l3.WritebackDirty_accesses::total       239093                       # number of WritebackDirty accesses(hits+misses)
system.l3.ReadExReq_accesses::cpu.data          31813                       # number of ReadExReq accesses(hits+misses)
system.l3.ReadExReq_accesses::total             31813                       # number of ReadExReq accesses(hits+misses)
system.l3.ReadSharedReq_accesses::cpu.inst          353                       # number of ReadSharedReq accesses(hits+misses)
system.l3.ReadSharedReq_accesses::cpu.data       216590                       # number of ReadSharedReq accesses(hits+misses)
system.l3.ReadSharedReq_accesses::total        216943                       # number of ReadSharedReq accesses(hits+misses)
system.l3.demand_accesses::cpu.inst               353                       # number of demand (read+write) accesses
system.l3.demand_accesses::cpu.data            248403                       # number of demand (read+write) accesses
system.l3.demand_accesses::total               248756                       # number of demand (read+write) accesses
system.l3.overall_accesses::cpu.inst              353                       # number of overall (read+write) accesses
system.l3.overall_accesses::cpu.data           248403                       # number of overall (read+write) accesses
system.l3.overall_accesses::total              248756                       # number of overall (read+write) accesses
system.l3.ReadExReq_miss_rate::cpu.data      0.988024                       # miss rate for ReadExReq accesses
system.l3.ReadExReq_miss_rate::total         0.988024                       # miss rate for ReadExReq accesses
system.l3.ReadSharedReq_miss_rate::cpu.inst            1                       # miss rate for ReadSharedReq accesses
system.l3.ReadSharedReq_miss_rate::cpu.data     0.350981                       # miss rate for ReadSharedReq accesses
system.l3.ReadSharedReq_miss_rate::total     0.352037                       # miss rate for ReadSharedReq accesses
system.l3.demand_miss_rate::cpu.inst                1                       # miss rate for demand accesses
system.l3.demand_miss_rate::cpu.data         0.432567                       # miss rate for demand accesses
system.l3.demand_miss_rate::total            0.433372                       # miss rate for demand accesses
system.l3.overall_miss_rate::cpu.inst               1                       # miss rate for overall accesses
system.l3.overall_miss_rate::cpu.data        0.432567                       # miss rate for overall accesses
system.l3.overall_miss_rate::total           0.433372                       # miss rate for overall accesses
system.l3.ReadExReq_avg_miss_latency::cpu.data 213907.451005                       # average ReadExReq miss latency
system.l3.ReadExReq_avg_miss_latency::total 213907.451005                       # average ReadExReq miss latency
system.l3.ReadSharedReq_avg_miss_latency::cpu.inst 166678.470255                       # average ReadSharedReq miss latency
system.l3.ReadSharedReq_avg_miss_latency::cpu.data 427749.759928                       # average ReadSharedReq miss latency
system.l3.ReadSharedReq_avg_miss_latency::total 426543.058974                       # average ReadSharedReq miss latency
system.l3.demand_avg_miss_latency::cpu.inst 166678.470255                       # average overall miss latency
system.l3.demand_avg_miss_latency::cpu.data 365195.745037                       # average overall miss latency
system.l3.demand_avg_miss_latency::total 364545.707951                       # average overall miss latency
system.l3.overall_avg_miss_latency::cpu.inst 166678.470255                       # average overall miss latency
system.l3.overall_avg_miss_latency::cpu.data 365195.745037                       # average overall miss latency
system.l3.overall_avg_miss_latency::total 364545.707951                       # average overall miss latency
system.l3.blocked_cycles::no_mshrs                  0                       # number of cycles access was blocked
system.l3.blocked_cycles::no_targets                0                       # number of cycles access was blocked
system.l3.blocked::no_mshrs                         0                       # number of cycles access was blocked
system.l3.blocked::no_targets                       0                       # number of cycles access was blocked
system.l3.avg_blocked_cycles::no_mshrs            nan                       # average number of cycles each access was blocked
system.l3.avg_blocked_cycles::no_targets          nan                       # average number of cycles each access was blocked
system.l3.writebacks::writebacks                88841                       # number of writebacks
system.l3.writebacks::total                     88841                       # number of writebacks
system.l3.ReadExReq_mshr_misses::cpu.data        31432                       # number of ReadExReq MSHR misses
system.l3.ReadExReq_mshr_misses::total          31432                       # number of ReadExReq MSHR misses
system.l3.ReadSharedReq_mshr_misses::cpu.inst          353                       # number of ReadSharedReq MSHR misses
system.l3.ReadSharedReq_mshr_misses::cpu.data        76019                       # number of ReadSharedReq MSHR misses
system.l3.ReadSharedReq_mshr_misses::total        76372                       # number of ReadSharedReq MSHR misses
system.l3.demand_mshr_misses::cpu.inst            353                       # number of demand (read+write) MSHR misses
system.l3.demand_mshr_misses::cpu.data         107451                       # number of demand (read+write) MSHR misses
system.l3.demand_mshr_misses::total            107804                       # number of demand (read+write) MSHR misses
system.l3.overall_mshr_misses::cpu.inst           353                       # number of overall MSHR misses
system.l3.overall_mshr_misses::cpu.data        107451                       # number of overall MSHR misses
system.l3.overall_mshr_misses::total           107804                       # number of overall MSHR misses
system.l3.ReadExReq_mshr_miss_latency::cpu.data   6409219000                       # number of ReadExReq MSHR miss cycles
system.l3.ReadExReq_mshr_miss_latency::total   6409219000                       # number of ReadExReq MSHR miss cycles
system.l3.ReadSharedReq_mshr_miss_latency::cpu.inst     55307500                       # number of ReadSharedReq MSHR miss cycles
system.l3.ReadSharedReq_mshr_miss_latency::cpu.data  31756919000                       # number of ReadSharedReq MSHR miss cycles
system.l3.ReadSharedReq_mshr_miss_latency::total  31812226500                       # number of ReadSharedReq MSHR miss cycles
system.l3.demand_mshr_miss_latency::cpu.inst     55307500                       # number of demand (read+write) MSHR miss cycles
system.l3.demand_mshr_miss_latency::cpu.data  38166138000                       # number of demand (read+write) MSHR miss cycles
system.l3.demand_mshr_miss_latency::total  38221445500                       # number of demand (read+write) MSHR miss cycles
system.l3.overall_mshr_miss_latency::cpu.inst     55307500                       # number of overall MSHR miss cycles
system.l3.overall_mshr_miss_latency::cpu.data  38166138000                       # number of overall MSHR miss cycles
system.l3.overall_mshr_miss_latency::total  38221445500                       # number of overall MSHR miss cycles
system.l3.ReadExReq_mshr_miss_rate::cpu.data     0.988024                       # mshr miss rate for ReadExReq accesses
system.l3.ReadExReq_mshr_miss_rate::total     0.988024                       # mshr miss rate for ReadExReq accesses
system.l3.ReadSharedReq_mshr_miss_rate::cpu.inst            1                       # mshr miss rate for ReadSharedReq accesses
system.l3.ReadSharedReq_mshr_miss_rate::cpu.data     0.350981                       # mshr miss rate for ReadSharedReq accesses
system.l3.ReadSharedReq_mshr_miss_rate::total     0.352037                       # mshr miss rate for ReadSharedReq accesses
system.l3.demand_mshr_miss_rate::cpu.inst            1                       # mshr miss rate for demand accesses
system.l3.demand_mshr_miss_rate::cpu.data     0.432567                       # mshr miss rate for demand accesses
system.l3.demand_mshr_miss_rate::total       0.433372                       # mshr miss rate for demand accesses
system.l3.overall_mshr_miss_rate::cpu.inst            1                       # mshr miss rate for overall accesses
system.l3.overall_mshr_miss_rate::cpu.data     0.432567                       # mshr miss rate for overall accesses
system.l3.overall_mshr_miss_rate::total      0.433372                       # mshr miss rate for overall accesses
system.l3.ReadExReq_avg_mshr_miss_latency::cpu.data 203907.451005                       # average ReadExReq mshr miss latency
system.l3.ReadExReq_avg_mshr_miss_latency::total 203907.451005                       # average ReadExReq mshr miss latency
system.l3.ReadSharedReq_avg_mshr_miss_latency::cpu.inst 156678.470255                       # average ReadSharedReq mshr miss latency
system.l3.ReadSharedReq_avg_mshr_miss_latency::cpu.data 417749.759928                       # average ReadSharedReq mshr miss latency
system.l3.ReadSharedReq_avg_mshr_miss_latency::total 416543.058974                       # average ReadSharedReq mshr miss latency
system.l3.demand_avg_mshr_miss_latency::cpu.inst 156678.470255                       # average overall mshr miss latency
system.l3.demand_avg_mshr_miss_latency::cpu.data 355195.745037                       # average overall mshr miss latency
system.l3.demand_avg_mshr_miss_latency::total 354545.707951                       # average overall mshr miss latency
system.l3.overall_avg_mshr_miss_latency::cpu.inst 156678.470255                       # average overall mshr miss latency
system.l3.overall_avg_mshr_miss_latency::cpu.data 355195.745037                       # average overall mshr miss latency
system.l3.overall_avg_mshr_miss_latency::total 354545.707951                       # average overall mshr miss latency
system.l3.replacements                          91433                       # number of replacements
system.membus.snoop_filter.tot_requests        198944                       # Total number of requests made to the snoop filter.
system.membus.snoop_filter.hit_single_requests        91140                       # Number of requests hitting in the snoop filter with a single holder of the requested data.
system.membus.snoop_filter.hit_multi_requests            0                       # Number of requests hitting in the snoop filter with multiple (>1) holders of the requested data.
system.membus.snoop_filter.tot_snoops               0                       # Total number of snoops made to the snoop filter.
system.membus.snoop_filter.hit_single_snoops            0                       # Number of snoops hitting in the snoop filter with a single holder of the requested data.
system.membus.snoop_filter.hit_multi_snoops            0                       # Number of snoops hitting in the snoop filter with multiple (>1) holders of the requested data.
system.membus.pwrStateResidencyTicks::UNDEFINED 534155114000                       # Cumulative time (in ticks) in various power states
system.membus.trans_dist::ReadResp              76372                       # Transaction distribution
system.membus.trans_dist::WritebackDirty        88841                       # Transaction distribution
system.membus.trans_dist::CleanEvict             2299                       # Transaction distribution
system.membus.trans_dist::ReadExReq             31432                       # Transaction distribution
system.membus.trans_dist::ReadExResp            31432                       # Transaction distribution
system.membus.trans_dist::ReadSharedReq         76372                       # Transaction distribution
system.membus.pkt_count_system.l3.mem_side::system.mem_ctrls.port       306748                       # Packet count per connected master and slave (bytes)
system.membus.pkt_count_system.l3.mem_side::total       306748                       # Packet count per connected master and slave (bytes)
system.membus.pkt_count::total                 306748                       # Packet count per connected master and slave (bytes)
system.membus.pkt_size_system.l3.mem_side::system.mem_ctrls.port     12585280                       # Cumulative packet size per connected master and slave (bytes)
system.membus.pkt_size_system.l3.mem_side::total     12585280                       # Cumulative packet size per connected master and slave (bytes)
system.membus.pkt_size::total                12585280                       # Cumulative packet size per connected master and slave (bytes)
system.membus.snoops                                0                       # Total snoops (count)
system.membus.snoopTraffic                          0                       # Total snoop traffic (bytes)
system.membus.snoop_fanout::samples            107804                       # Request fanout histogram
system.membus.snoop_fanout::mean                    0                       # Request fanout histogram
system.membus.snoop_fanout::stdev                   0                       # Request fanout histogram
system.membus.snoop_fanout::underflows              0      0.00%      0.00% # Request fanout histogram
system.membus.snoop_fanout::0                  107804    100.00%    100.00% # Request fanout histogram
system.membus.snoop_fanout::1                       0      0.00%    100.00% # Request fanout histogram
system.membus.snoop_fanout::overflows               0      0.00%    100.00% # Request fanout histogram
system.membus.snoop_fanout::min_value               0                       # Request fanout histogram
system.membus.snoop_fanout::max_value               0                       # Request fanout histogram
system.membus.snoop_fanout::total              107804                       # Request fanout histogram
system.membus.reqLayer2.occupancy           554311500                       # Layer occupancy (ticks)
system.membus.reqLayer2.utilization               0.1                       # Layer utilization (%)
system.membus.respLayer1.occupancy          539023500                       # Layer occupancy (ticks)
system.membus.respLayer1.utilization              0.1                       # Layer utilization (%)
system.tol2bus.snoop_filter.tot_requests       816933                       # Total number of requests made to the snoop filter.
system.tol2bus.snoop_filter.hit_single_requests       464559                       # Number of requests hitting in the snoop filter with a single holder of the requested data.
system.tol2bus.snoop_filter.hit_multi_requests            0                       # Number of requests hitting in the snoop filter with multiple (>1) holders of the requested data.
system.tol2bus.snoop_filter.tot_snoops            621                       # Total number of snoops made to the snoop filter.
system.tol2bus.snoop_filter.hit_single_snoops          621                       # Number of snoops hitting in the snoop filter with a single holder of the requested data.
system.tol2bus.snoop_filter.hit_multi_snoops            0                       # Number of snoops hitting in the snoop filter with multiple (>1) holders of the requested data.
system.tol2bus.pwrStateResidencyTicks::UNDEFINED 534155114000                       # Cumulative time (in ticks) in various power states
system.tol2bus.trans_dist::ReadResp            319125                       # Transaction distribution
system.tol2bus.trans_dist::WritebackDirty       560123                       # Transaction distribution
system.tol2bus.trans_dist::WritebackClean           45                       # Transaction distribution
system.tol2bus.trans_dist::CleanEvict           38446                       # Transaction distribution
system.tol2bus.trans_dist::UpgradeReq          113005                       # Transaction distribution
system.tol2bus.trans_dist::UpgradeResp         113005                       # Transaction distribution
system.tol2bus.trans_dist::ReadExReq            33249                       # Transaction distribution
system.tol2bus.trans_dist::ReadExResp           33249                       # Transaction distribution
system.tol2bus.trans_dist::ReadCleanReq           353                       # Transaction distribution
system.tol2bus.trans_dist::ReadSharedReq       318772                       # Transaction distribution
system.tol2bus.pkt_count_system.cpu.icache.mem_side::system.l2.cpu_side          751                       # Packet count per connected master and slave (bytes)
system.tol2bus.pkt_count_system.cpu.dcache.mem_side::system.l2.cpu_side      1281561                       # Packet count per connected master and slave (bytes)
system.tol2bus.pkt_count::total               1282312                       # Packet count per connected master and slave (bytes)
system.tol2bus.pkt_size_system.cpu.icache.mem_side::system.l2.cpu_side        25472                       # Cumulative packet size per connected master and slave (bytes)
system.tol2bus.pkt_size_system.cpu.dcache.mem_side::system.l2.cpu_side     43075264                       # Cumulative packet size per connected master and slave (bytes)
system.tol2bus.pkt_size::total               43100736                       # Cumulative packet size per connected master and slave (bytes)
system.tol2bus.snoops                          247060                       # Total snoops (count)
system.tol2bus.snoopTraffic                  15301952                       # Total snoop traffic (bytes)
system.tol2bus.snoop_fanout::samples           712439                       # Request fanout histogram
system.tol2bus.snoop_fanout::mean            0.000872                       # Request fanout histogram
system.tol2bus.snoop_fanout::stdev           0.029511                       # Request fanout histogram
system.tol2bus.snoop_fanout::underflows             0      0.00%      0.00% # Request fanout histogram
system.tol2bus.snoop_fanout::0                 711818     99.91%     99.91% # Request fanout histogram
system.tol2bus.snoop_fanout::1                    621      0.09%    100.00% # Request fanout histogram
system.tol2bus.snoop_fanout::2                      0      0.00%    100.00% # Request fanout histogram
system.tol2bus.snoop_fanout::3                      0      0.00%    100.00% # Request fanout histogram
system.tol2bus.snoop_fanout::4                      0      0.00%    100.00% # Request fanout histogram
system.tol2bus.snoop_fanout::overflows              0      0.00%    100.00% # Request fanout histogram
system.tol2bus.snoop_fanout::min_value              0                       # Request fanout histogram
system.tol2bus.snoop_fanout::max_value              1                       # Request fanout histogram
system.tol2bus.snoop_fanout::total             712439                       # Request fanout histogram
system.tol2bus.reqLayer0.occupancy          729541500                       # Layer occupancy (ticks)
system.tol2bus.reqLayer0.utilization              0.1                       # Layer utilization (%)
system.tol2bus.respLayer0.occupancy            529500                       # Layer occupancy (ticks)
system.tol2bus.respLayer0.utilization             0.0                       # Layer utilization (%)
system.tol2bus.respLayer1.occupancy         584534000                       # Layer occupancy (ticks)
system.tol2bus.respLayer1.utilization             0.1                       # Layer utilization (%)
system.tol3bus.snoop_filter.tot_requests       495194                       # Total number of requests made to the snoop filter.
system.tol3bus.snoop_filter.hit_single_requests       246438                       # Number of requests hitting in the snoop filter with a single holder of the requested data.
system.tol3bus.snoop_filter.hit_multi_requests            0                       # Number of requests hitting in the snoop filter with multiple (>1) holders of the requested data.
system.tol3bus.snoop_filter.tot_snoops            293                       # Total number of snoops made to the snoop filter.
system.tol3bus.snoop_filter.hit_single_snoops          293                       # Number of snoops hitting in the snoop filter with a single holder of the requested data.
system.tol3bus.snoop_filter.hit_multi_snoops            0                       # Number of snoops hitting in the snoop filter with multiple (>1) holders of the requested data.
system.tol3bus.pwrStateResidencyTicks::UNDEFINED 534155114000                       # Cumulative time (in ticks) in various power states
system.tol3bus.trans_dist::ReadResp            216943                       # Transaction distribution
system.tol3bus.trans_dist::WritebackDirty       327934                       # Transaction distribution
system.tol3bus.trans_dist::CleanEvict            9937                       # Transaction distribution
system.tol3bus.trans_dist::ReadExReq            31813                       # Transaction distribution
system.tol3bus.trans_dist::ReadExResp           31813                       # Transaction distribution
system.tol3bus.trans_dist::ReadSharedReq       216943                       # Transaction distribution
system.tol3bus.pkt_count_system.l2.mem_side::system.l3.cpu_side       743950                       # Packet count per connected master and slave (bytes)
system.tol3bus.pkt_size_system.l2.mem_side::system.l3.cpu_side     31222336                       # Cumulative packet size per connected master and slave (bytes)
system.tol3bus.snoops                           91433                       # Total snoops (count)
system.tol3bus.snoopTraffic                   5685824                       # Total snoop traffic (bytes)
system.tol3bus.snoop_fanout::samples           340189                       # Request fanout histogram
system.tol3bus.snoop_fanout::mean            0.000861                       # Request fanout histogram
system.tol3bus.snoop_fanout::stdev           0.029335                       # Request fanout histogram
system.tol3bus.snoop_fanout::underflows             0      0.00%      0.00% # Request fanout histogram
system.tol3bus.snoop_fanout::0                 339896     99.91%     99.91% # Request fanout histogram
system.tol3bus.snoop_fanout::1                    293      0.09%    100.00% # Request fanout histogram
system.tol3bus.snoop_fanout::overflows              0      0.00%    100.00% # Request fanout histogram
system.tol3bus.snoop_fanout::min_value              0                       # Request fanout histogram
system.tol3bus.snoop_fanout::max_value              1                       # Request fanout histogram
system.tol3bus.snoop_fanout::total             340189                       # Request fanout histogram
system.tol3bus.reqLayer0.occupancy          486690000                       # Layer occupancy (ticks)
system.tol3bus.reqLayer0.utilization              0.1                       # Layer utilization (%)
system.tol3bus.respLayer0.occupancy         373134000                       # Layer occupancy (ticks)
system.tol3bus.respLayer0.utilization             0.1                       # Layer utilization (%)

---------- End Simulation Statistics   ----------
