
---------- Begin Simulation Statistics ----------
sim_seconds                                  0.534617                       # Number of seconds simulated
sim_ticks                                534616864000                       # Number of ticks simulated
final_tick                               534616864000                       # Number of ticks from beginning of simulation (restored from checkpoints and never reset)
sim_freq                                 1000000000000                       # Frequency of simulated ticks
host_inst_rate                                1187582                       # Simulator instruction rate (inst/s)
host_op_rate                                  1936756                       # Simulator op (including micro ops) rate (op/s)
host_tick_rate                             2548148645                       # Simulator tick rate (ticks/s)
host_mem_usage                                 621372                       # Number of bytes of host memory used
host_seconds                                   209.81                       # Real time elapsed on the host
sim_insts                                   249161735                       # Number of instructions simulated
sim_ops                                     406343042                       # Number of ops (including micro ops) simulated
system.voltage_domain.voltage                       1                       # Voltage in Volts
system.clk_domain.clock                          1000                       # Clock period in ticks
system.mem_ctrls.pwrStateResidencyTicks::UNDEFINED 534616864000                       # Cumulative time (in ticks) in various power states
system.mem_ctrls.bytes_read::cpu.inst           22592                       # Number of bytes read from this memory
system.mem_ctrls.bytes_read::cpu.data         7022912                       # Number of bytes read from this memory
system.mem_ctrls.bytes_read::total            7045504                       # Number of bytes read from this memory
system.mem_ctrls.bytes_inst_read::cpu.inst        22592                       # Number of instructions bytes read from this memory
system.mem_ctrls.bytes_inst_read::total         22592                       # Number of instructions bytes read from this memory
system.mem_ctrls.bytes_written::writebacks      5830080                       # Number of bytes written to this memory
system.mem_ctrls.bytes_written::total         5830080                       # Number of bytes written to this memory
system.mem_ctrls.num_reads::cpu.inst              353                       # Number of read requests responded to by this memory
system.mem_ctrls.num_reads::cpu.data           109733                       # Number of read requests responded to by this memory
system.mem_ctrls.num_reads::total              110086                       # Number of read requests responded to by this memory
system.mem_ctrls.num_writes::writebacks         91095                       # Number of write requests responded to by this memory
system.mem_ctrls.num_writes::total              91095                       # Number of write requests responded to by this memory
system.mem_ctrls.bw_read::cpu.inst              42258                       # Total read bandwidth from this memory (bytes/s)
system.mem_ctrls.bw_read::cpu.data           13136346                       # Total read bandwidth from this memory (bytes/s)
system.mem_ctrls.bw_read::total              13178604                       # Total read bandwidth from this memory (bytes/s)
system.mem_ctrls.bw_inst_read::cpu.inst         42258                       # Instruction read bandwidth from this memory (bytes/s)
system.mem_ctrls.bw_inst_read::total            42258                       # Instruction read bandwidth from this memory (bytes/s)
system.mem_ctrls.bw_write::writebacks        10905155                       # Write bandwidth from this memory (bytes/s)
system.mem_ctrls.bw_write::total             10905155                       # Write bandwidth from this memory (bytes/s)
system.mem_ctrls.bw_total::writebacks        10905155                       # Total bandwidth to/from this memory (bytes/s)
system.mem_ctrls.bw_total::cpu.inst             42258                       # Total bandwidth to/from this memory (bytes/s)
system.mem_ctrls.bw_total::cpu.data          13136346                       # Total bandwidth to/from this memory (bytes/s)
system.mem_ctrls.bw_total::total             24083760                       # Total bandwidth to/from this memory (bytes/s)
system.pwrStateResidencyTicks::UNDEFINED 534616864000                       # Cumulative time (in ticks) in various power states
system.cpu_voltage_domain.voltage                   1                       # Voltage in Volts
system.cpu_clk_domain.clock                       500                       # Clock period in ticks
system.cpu.dtb.walker.pwrStateResidencyTicks::UNDEFINED 534616864000                       # Cumulative time (in ticks) in various power states
system.cpu.dtb.rdAccesses                   118033992                       # TLB accesses on read requests
system.cpu.dtb.wrAccesses                    31915272                       # TLB accesses on write requests
system.cpu.dtb.rdMisses                          2737                       # TLB misses on read requests
system.cpu.dtb.wrMisses                           497                       # TLB misses on write requests
system.cpu.apic_clk_domain.clock                 8000                       # Clock period in ticks
system.cpu.interrupts.pwrStateResidencyTicks::UNDEFINED 534616864000                       # Cumulative time (in ticks) in various power states
system.cpu.itb.walker.pwrStateResidencyTicks::UNDEFINED 534616864000                       # Cumulative time (in ticks) in various power states
system.cpu.itb.rdAccesses                           0                       # TLB accesses on read requests
system.cpu.itb.wrAccesses                   335229882                       # TLB accesses on write requests
system.cpu.itb.rdMisses                             0                       # TLB misses on read requests
system.cpu.itb.wrMisses                            36                       # TLB misses on write requests
system.cpu.workload.numSyscalls                     9                       # Number of system calls
system.cpu.pwrStateResidencyTicks::ON    534616864000                       # Cumulative time (in ticks) in various power states
system.cpu.numCycles                       1069233728                       # number of cpu cycles simulated
system.cpu.numWorkItemsStarted                      0                       # number of work items this cpu started
system.cpu.numWorkItemsCompleted                    0                       # number of work items this cpu completed
system.cpu.committedInsts                   249161735                       # Number of instructions committed
system.cpu.committedOps                     406343042                       # Number of ops (including micro ops) committed
system.cpu.num_int_alu_accesses             403870578                       # Number of integer alu accesses
system.cpu.num_fp_alu_accesses                   1943                       # Number of float alu accesses
system.cpu.num_vec_alu_accesses                     0                       # Number of vector alu accesses
system.cpu.num_func_calls                     4727228                       # number of times a function call or return occured
system.cpu.num_conditional_control_insts     23353243                       # number of instructions that are conditional controls
system.cpu.num_int_insts                    403870578                       # number of integer instructions
system.cpu.num_fp_insts                          1943                       # number of float instructions
system.cpu.num_vec_insts                            0                       # number of vector instructions
system.cpu.num_int_register_reads           905631451                       # number of times the integer registers were read
system.cpu.num_int_register_writes          351334395                       # number of times the integer registers were written
system.cpu.num_fp_register_reads                 3767                       # number of times the floating registers were read
system.cpu.num_fp_register_writes                1480                       # number of times the floating registers were written
system.cpu.num_vec_register_reads                   0                       # number of times the vector registers were read
system.cpu.num_vec_register_writes                  0                       # number of times the vector registers were written
system.cpu.num_cc_register_reads            149131738                       # number of times the CC registers were read
system.cpu.num_cc_register_writes           139496765                       # number of times the CC registers were written
system.cpu.num_mem_refs                     149949261                       # number of memory refs
system.cpu.num_load_insts                   118033989                       # Number of load instructions
system.cpu.num_store_insts                   31915272                       # Number of store instructions
system.cpu.num_idle_cycles                          0                       # Number of idle cycles
system.cpu.num_busy_cycles                 1069233728                       # Number of busy cycles
system.cpu.not_idle_fraction                        1                       # Percentage of non-idle cycles
system.cpu.idle_fraction                            0                       # Percentage of idle cycles
system.cpu.Branches                          30316574                       # Number of branches fetched
system.cpu.op_class::No_OpClass                744058      0.18%      0.18% # Class of executed instruction
system.cpu.op_class::IntAlu                 251172917     61.81%     62.00% # Class of executed instruction
system.cpu.op_class::IntMult                        4      0.00%     62.00% # Class of executed instruction
system.cpu.op_class::IntDiv                   4475842      1.10%     63.10% # Class of executed instruction
system.cpu.op_class::FloatAdd                      10      0.00%     63.10% # Class of executed instruction
system.cpu.op_class::FloatCmp                       0      0.00%     63.10% # Class of executed instruction
system.cpu.op_class::FloatCvt                       0      0.00%     63.10% # Class of executed instruction
system.cpu.op_class::FloatMult                      0      0.00%     63.10% # Class of executed instruction
system.cpu.op_class::FloatMultAcc                   0      0.00%     63.10% # Class of executed instruction
system.cpu.op_class::FloatDiv                       0      0.00%     63.10% # Class of executed instruction
system.cpu.op_class::FloatMisc                      0      0.00%     63.10% # Class of executed instruction
system.cpu.op_class::FloatSqrt                      0      0.00%     63.10% # Class of executed instruction
system.cpu.op_class::SimdAdd                      374      0.00%     63.10% # Class of executed instruction
system.cpu.op_class::SimdAddAcc                     0      0.00%     63.10% # Class of executed instruction
system.cpu.op_class::SimdAlu                       68      0.00%     63.10% # Class of executed instruction
system.cpu.op_class::SimdCmp                        0      0.00%     63.10% # Class of executed instruction
system.cpu.op_class::SimdCvt                      108      0.00%     63.10% # Class of executed instruction
system.cpu.op_class::SimdMisc                     214      0.00%     63.10% # Class of executed instruction
system.cpu.op_class::SimdMult                       0      0.00%     63.10% # Class of executed instruction
system.cpu.op_class::SimdMultAcc                    0      0.00%     63.10% # Class of executed instruction
system.cpu.op_class::SimdShift                    186      0.00%     63.10% # Class of executed instruction
system.cpu.op_class::SimdShiftAcc                   0      0.00%     63.10% # Class of executed instruction
system.cpu.op_class::SimdSqrt                       0      0.00%     63.10% # Class of executed instruction
system.cpu.op_class::SimdFloatAdd                   0      0.00%     63.10% # Class of executed instruction
system.cpu.op_class::SimdFloatAlu                   0      0.00%     63.10% # Class of executed instruction
system.cpu.op_class::SimdFloatCmp                   0      0.00%     63.10% # Class of executed instruction
system.cpu.op_class::SimdFloatCvt                   0      0.00%     63.10% # Class of executed instruction
system.cpu.op_class::SimdFloatDiv                   0      0.00%     63.10% # Class of executed instruction
system.cpu.op_class::SimdFloatMisc                  0      0.00%     63.10% # Class of executed instruction
system.cpu.op_class::SimdFloatMult                  0      0.00%     63.10% # Class of executed instruction
system.cpu.op_class::SimdFloatMultAcc               0      0.00%     63.10% # Class of executed instruction
system.cpu.op_class::SimdFloatSqrt                  0      0.00%     63.10% # Class of executed instruction
system.cpu.op_class::MemRead                118033933     29.05%     92.15% # Class of executed instruction
system.cpu.op_class::MemWrite                31914857      7.85%    100.00% # Class of executed instruction
system.cpu.op_class::FloatMemRead                  56      0.00%    100.00% # Class of executed instruction
system.cpu.op_class::FloatMemWrite                415      0.00%    100.00% # Class of executed instruction
system.cpu.op_class::IprAccess                      0      0.00%    100.00% # Class of executed instruction
system.cpu.op_class::InstPrefetch                   0      0.00%    100.00% # Class of executed instruction
system.cpu.op_class::total                  406343042                       # Class of executed instruction
system.cpu.dcache.tags.pwrStateResidencyTicks::UNDEFINED 534616864000                       # Cumulative time (in ticks) in various power states
system.cpu.dcache.tags.tagsinuse           511.630089                       # Cycle average of tags in use
system.cpu.dcache.tags.total_refs           149949264                       # Total number of references to valid blocks.
system.cpu.dcache.tags.sampled_refs            352021                       # Sample count of references to valid blocks.
system.cpu.dcache.tags.avg_refs            425.966814                       # Average number of references to valid blocks.
system.cpu.dcache.tags.warmup_cycle            759000                       # Cycle when the warmup percentage was hit.
system.cpu.dcache.tags.occ_blocks::cpu.data   511.630089                       # Average occupied blocks per requestor
system.cpu.dcache.tags.occ_percent::cpu.data     0.999278                       # Average percentage of cache occupancy
system.cpu.dcache.tags.occ_percent::total     0.999278                       # Average percentage of cache occupancy
system.cpu.dcache.tags.occ_task_id_blocks::1024          512                       # Occupied blocks per task id
system.cpu.dcache.tags.age_task_id_blocks_1024::0           11                       # Occupied blocks per task id
system.cpu.dcache.tags.age_task_id_blocks_1024::1           17                       # Occupied blocks per task id
system.cpu.dcache.tags.age_task_id_blocks_1024::2           57                       # Occupied blocks per task id
system.cpu.dcache.tags.age_task_id_blocks_1024::3          427                       # Occupied blocks per task id
system.cpu.dcache.tags.occ_task_id_percent::1024            1                       # Percentage of cache occupancy per task id
system.cpu.dcache.tags.tag_accesses         300250549                       # Number of tag accesses
system.cpu.dcache.tags.data_accesses        300250549                       # Number of data accesses
system.cpu.dcache.pwrStateResidencyTicks::UNDEFINED 534616864000                       # Cumulative time (in ticks) in various power states
system.cpu.dcache.ReadReq_hits::cpu.data    117715220                       # number of ReadReq hits
system.cpu.dcache.ReadReq_hits::total       117715220                       # number of ReadReq hits
system.cpu.dcache.WriteReq_hits::cpu.data     31771253                       # number of WriteReq hits
system.cpu.dcache.WriteReq_hits::total       31771253                       # number of WriteReq hits
system.cpu.dcache.demand_hits::cpu.data     149486473                       # number of demand (read+write) hits
system.cpu.dcache.demand_hits::total        149486473                       # number of demand (read+write) hits
system.cpu.dcache.overall_hits::cpu.data    149486473                       # number of overall hits
system.cpu.dcache.overall_hits::total       149486473                       # number of overall hits
system.cpu.dcache.ReadReq_misses::cpu.data       318772                       # number of ReadReq misses
system.cpu.dcache.ReadReq_misses::total        318772                       # number of ReadReq misses
system.cpu.dcache.WriteReq_misses::cpu.data       144019                       # number of WriteReq misses
system.cpu.dcache.WriteReq_misses::total       144019                       # number of WriteReq misses
system.cpu.dcache.demand_misses::cpu.data       462791                       # number of demand (read+write) misses
system.cpu.dcache.demand_misses::total         462791                       # number of demand (read+write) misses
system.cpu.dcache.overall_misses::cpu.data       462791                       # number of overall misses
system.cpu.dcache.overall_misses::total        462791                       # number of overall misses
system.cpu.dcache.ReadReq_miss_latency::cpu.data  41255258000                       # number of ReadReq miss cycles
system.cpu.dcache.ReadReq_miss_latency::total  41255258000                       # number of ReadReq miss cycles
system.cpu.dcache.WriteReq_miss_latency::cpu.data   8580562000                       # number of WriteReq miss cycles
system.cpu.dcache.WriteReq_miss_latency::total   8580562000                       # number of WriteReq miss cycles
system.cpu.dcache.demand_miss_latency::cpu.data  49835820000                       # number of demand (read+write) miss cycles
system.cpu.dcache.demand_miss_latency::total  49835820000                       # number of demand (read+write) miss cycles
system.cpu.dcache.overall_miss_latency::cpu.data  49835820000                       # number of overall miss cycles
system.cpu.dcache.overall_miss_latency::total  49835820000                       # number of overall miss cycles
system.cpu.dcache.ReadReq_accesses::cpu.data    118033992                       # number of ReadReq accesses(hits+misses)
system.cpu.dcache.ReadReq_accesses::total    118033992                       # number of ReadReq accesses(hits+misses)
system.cpu.dcache.WriteReq_accesses::cpu.data     31915272                       # number of WriteReq accesses(hits+misses)
system.cpu.dcache.WriteReq_accesses::total     31915272                       # number of WriteReq accesses(hits+misses)
system.cpu.dcache.demand_accesses::cpu.data    149949264                       # number of demand (read+write) accesses
system.cpu.dcache.demand_accesses::total    149949264                       # number of demand (read+write) accesses
system.cpu.dcache.overall_accesses::cpu.data    149949264                       # number of overall (read+write) accesses
system.cpu.dcache.overall_accesses::total    149949264                       # number of overall (read+write) accesses
system.cpu.dcache.ReadReq_miss_rate::cpu.data     0.002701                       # miss rate for ReadReq accesses
system.cpu.dcache.ReadReq_miss_rate::total     0.002701                       # miss rate for ReadReq accesses
system.cpu.dcache.WriteReq_miss_rate::cpu.data     0.004513                       # miss rate for WriteReq accesses
system.cpu.dcache.WriteReq_miss_rate::total     0.004513                       # miss rate for WriteReq accesses
system.cpu.dcache.demand_miss_rate::cpu.data     0.003086                       # miss rate for demand accesses
system.cpu.dcache.demand_miss_rate::total     0.003086                       # miss rate for demand accesses
system.cpu.dcache.overall_miss_rate::cpu.data     0.003086                       # miss rate for overall accesses
system.cpu.dcache.overall_miss_rate::total     0.003086                       # miss rate for overall accesses
system.cpu.dcache.ReadReq_avg_miss_latency::cpu.data 129419.327921                       # average ReadReq miss latency
system.cpu.dcache.ReadReq_avg_miss_latency::total 129419.327921                       # average ReadReq miss latency
system.cpu.dcache.WriteReq_avg_miss_latency::cpu.data 59579.374944                       # average WriteReq miss latency
system.cpu.dcache.WriteReq_avg_miss_latency::total 59579.374944                       # average WriteReq miss latency
system.cpu.dcache.demand_avg_miss_latency::cpu.data 107685.369854                       # average overall miss latency
system.cpu.dcache.demand_avg_miss_latency::total 107685.369854                       # average overall miss latency
system.cpu.dcache.overall_avg_miss_latency::cpu.data 107685.369854                       # average overall miss latency
system.cpu.dcache.overall_avg_miss_latency::total 107685.369854                       # average overall miss latency
system.cpu.dcache.blocked_cycles::no_mshrs            0                       # number of cycles access was blocked
system.cpu.dcache.blocked_cycles::no_targets            0                       # number of cycles access was blocked
system.cpu.dcache.blocked::no_mshrs                 0                       # number of cycles access was blocked
system.cpu.dcache.blocked::no_targets               0                       # number of cycles access was blocked
system.cpu.dcache.avg_blocked_cycles::no_mshrs          nan                       # average number of cycles each access was blocked
system.cpu.dcache.avg_blocked_cycles::no_targets          nan                       # average number of cycles each access was blocked
system.cpu.dcache.writebacks::writebacks       321030                       # number of writebacks
system.cpu.dcache.writebacks::total            321030                       # number of writebacks
system.cpu.dcache.ReadReq_mshr_misses::cpu.data       318772                       # number of ReadReq MSHR misses
system.cpu.dcache.ReadReq_mshr_misses::total       318772                       # number of ReadReq MSHR misses
system.cpu.dcache.WriteReq_mshr_misses::cpu.data       144019                       # number of WriteReq MSHR misses
system.cpu.dcache.WriteReq_mshr_misses::total       144019                       # number of WriteReq MSHR misses
system.cpu.dcache.demand_mshr_misses::cpu.data       462791                       # number of demand (read+write) MSHR misses
system.cpu.dcache.demand_mshr_misses::total       462791                       # number of demand (read+write) MSHR misses
system.cpu.dcache.overall_mshr_misses::cpu.data       462791                       # number of overall MSHR misses
system.cpu.dcache.overall_mshr_misses::total       462791                       # number of overall MSHR misses
system.cpu.dcache.ReadReq_mshr_miss_latency::cpu.data  40936486000                       # number of ReadReq MSHR miss cycles
system.cpu.dcache.ReadReq_mshr_miss_latency::total  40936486000                       # number of ReadReq MSHR miss cycles
system.cpu.dcache.WriteReq_mshr_miss_latency::cpu.data   8436543000                       # number of WriteReq MSHR miss cycles
system.cpu.dcache.WriteReq_mshr_miss_latency::total   8436543000                       # number of WriteReq MSHR miss cycles
system.cpu.dcache.demand_mshr_miss_latency::cpu.data  49373029000                       # number of demand (read+write) MSHR miss cycles
system.cpu.dcache.demand_mshr_miss_latency::total  49373029000                       # number of demand (read+write) MSHR miss cycles
system.cpu.dcache.overall_mshr_miss_latency::cpu.data  49373029000                       # number of overall MSHR miss cycles
system.cpu.dcache.overall_mshr_miss_latency::total  49373029000                       # number of overall MSHR miss cycles
system.cpu.dcache.ReadReq_mshr_miss_rate::cpu.data     0.002701                       # mshr miss rate for ReadReq accesses
system.cpu.dcache.ReadReq_mshr_miss_rate::total     0.002701                       # mshr miss rate for ReadReq accesses
system.cpu.dcache.WriteReq_mshr_miss_rate::cpu.data     0.004513                       # mshr miss rate for WriteReq accesses
system.cpu.dcache.WriteReq_mshr_miss_rate::total     0.004513                       # mshr miss rate for WriteReq accesses
system.cpu.dcache.demand_mshr_miss_rate::cpu.data     0.003086                       # mshr miss rate for demand accesses
system.cpu.dcache.demand_mshr_miss_rate::total     0.003086                       # mshr miss rate for demand accesses
system.cpu.dcache.overall_mshr_miss_rate::cpu.data     0.003086                       # mshr miss rate for overall accesses
system.cpu.dcache.overall_mshr_miss_rate::total     0.003086                       # mshr miss rate for overall accesses
system.cpu.dcache.ReadReq_avg_mshr_miss_latency::cpu.data 128419.327921                       # average ReadReq mshr miss latency
system.cpu.dcache.ReadReq_avg_mshr_miss_latency::total 128419.327921                       # average ReadReq mshr miss latency
system.cpu.dcache.WriteReq_avg_mshr_miss_latency::cpu.data 58579.374944                       # average WriteReq mshr miss latency
system.cpu.dcache.WriteReq_avg_mshr_miss_latency::total 58579.374944                       # average WriteReq mshr miss latency
system.cpu.dcache.demand_avg_mshr_miss_latency::cpu.data 106685.369854                       # average overall mshr miss latency
system.cpu.dcache.demand_avg_mshr_miss_latency::total 106685.369854                       # average overall mshr miss latency
system.cpu.dcache.overall_avg_mshr_miss_latency::cpu.data 106685.369854                       # average overall mshr miss latency
system.cpu.dcache.overall_avg_mshr_miss_latency::total 106685.369854                       # average overall mshr miss latency
system.cpu.dcache.replacements                 351509                       # number of replacements
system.cpu.dtb_walker_cache.tags.pwrStateResidencyTicks::UNDEFINED 534616864000                       # Cumulative time (in ticks) in various power states
system.cpu.dtb_walker_cache.tags.tagsinuse            0                       # Cycle average of tags in use
system.cpu.dtb_walker_cache.tags.total_refs            0                       # Total number of references to valid blocks.
system.cpu.dtb_walker_cache.tags.sampled_refs            0                       # Sample count of references to valid blocks.
system.cpu.dtb_walker_cache.tags.avg_refs          nan                       # Average number of references to valid blocks.
system.cpu.dtb_walker_cache.tags.warmup_cycle            0                       # Cycle when the warmup percentage was hit.
system.cpu.dtb_walker_cache.tags.tag_accesses            0                       # Number of tag accesses
system.cpu.dtb_walker_cache.tags.data_accesses            0                       # Number of data accesses
system.cpu.dtb_walker_cache.pwrStateResidencyTicks::UNDEFINED 534616864000                       # Cumulative time (in ticks) in various power states
system.cpu.dtb_walker_cache.blocked_cycles::no_mshrs            0                       # number of cycles access was blocked
system.cpu.dtb_walker_cache.blocked_cycles::no_targets            0                       # number of cycles access was blocked
system.cpu.dtb_walker_cache.blocked::no_mshrs            0                       # number of cycles access was blocked
system.cpu.dtb_walker_cache.blocked::no_targets            0                       # number of cycles access was blocked
system.cpu.dtb_walker_cache.avg_blocked_cycles::no_mshrs          nan                       # average number of cycles each access was blocked
system.cpu.dtb_walker_cache.avg_blocked_cycles::no_targets          nan                       # average number of cycles each access was blocked
system.cpu.dtb_walker_cache.replacements            0                       # number of replacements
system.cpu.icache.tags.pwrStateResidencyTicks::UNDEFINED 534616864000                       # Cumulative time (in ticks) in various power states
system.cpu.icache.tags.tagsinuse           279.466378                       # Cycle average of tags in use
system.cpu.icache.tags.total_refs           335229882                       # Total number of references to valid blocks.
system.cpu.icache.tags.sampled_refs               353                       # Sample count of references to valid blocks.
system.cpu.icache.tags.avg_refs          949659.722380                       # Average number of references to valid blocks.
system.cpu.icache.tags.warmup_cycle            439000                       # Cycle when the warmup percentage was hit.
system.cpu.icache.tags.occ_blocks::cpu.inst   279.466378                       # Average occupied blocks per requestor
system.cpu.icache.tags.occ_percent::cpu.inst     0.545833                       # Average percentage of cache occupancy
system.cpu.icache.tags.occ_percent::total     0.545833                       # Average percentage of cache occupancy
system.cpu.icache.tags.occ_task_id_blocks::1024          308                       # Occupied blocks per task id
system.cpu.icache.tags.age_task_id_blocks_1024::0           15                       # Occupied blocks per task id
system.cpu.icache.tags.age_task_id_blocks_1024::1           23                       # Occupied blocks per task id
system.cpu.icache.tags.age_task_id_blocks_1024::4          270                       # Occupied blocks per task id
system.cpu.icache.tags.occ_task_id_percent::1024     0.601562                       # Percentage of cache occupancy per task id
system.cpu.icache.tags.tag_accesses         670460117                       # Number of tag accesses
system.cpu.icache.tags.data_accesses        670460117                       # Number of data accesses
system.cpu.icache.pwrStateResidencyTicks::UNDEFINED 534616864000                       # Cumulative time (in ticks) in various power states
system.cpu.icache.ReadReq_hits::cpu.inst    335229529                       # number of ReadReq hits
system.cpu.icache.ReadReq_hits::total       335229529                       # number of ReadReq hits
system.cpu.icache.demand_hits::cpu.inst     335229529                       # number of demand (read+write) hits
system.cpu.icache.demand_hits::total        335229529                       # number of demand (read+write) hits
system.cpu.icache.overall_hits::cpu.inst    335229529                       # number of overall hits
system.cpu.icache.overall_hits::total       335229529                       # number of overall hits
system.cpu.icache.ReadReq_misses::cpu.inst          353                       # number of ReadReq misses
system.cpu.icache.ReadReq_misses::total           353                       # number of ReadReq misses
system.cpu.icache.demand_misses::cpu.inst          353                       # number of demand (read+write) misses
system.cpu.icache.demand_misses::total            353                       # number of demand (read+write) misses
system.cpu.icache.overall_misses::cpu.inst          353                       # number of overall misses
system.cpu.icache.overall_misses::total           353                       # number of overall misses
system.cpu.icache.ReadReq_miss_latency::cpu.inst     65045000                       # number of ReadReq miss cycles
system.cpu.icache.ReadReq_miss_latency::total     65045000                       # number of ReadReq miss cycles
system.cpu.icache.demand_miss_latency::cpu.inst     65045000                       # number of demand (read+write) miss cycles
system.cpu.icache.demand_miss_latency::total     65045000                       # number of demand (read+write) miss cycles
system.cpu.icache.overall_miss_latency::cpu.inst     65045000                       # number of overall miss cycles
system.cpu.icache.overall_miss_latency::total     65045000                       # number of overall miss cycles
system.cpu.icache.ReadReq_accesses::cpu.inst    335229882                       # number of ReadReq accesses(hits+misses)
system.cpu.icache.ReadReq_accesses::total    335229882                       # number of ReadReq accesses(hits+misses)
system.cpu.icache.demand_accesses::cpu.inst    335229882                       # number of demand (read+write) accesses
system.cpu.icache.demand_accesses::total    335229882                       # number of demand (read+write) accesses
system.cpu.icache.overall_accesses::cpu.inst    335229882                       # number of overall (read+write) accesses
system.cpu.icache.overall_accesses::total    335229882                       # number of overall (read+write) accesses
system.cpu.icache.ReadReq_miss_rate::cpu.inst     0.000001                       # miss rate for ReadReq accesses
system.cpu.icache.ReadReq_miss_rate::total     0.000001                       # miss rate for ReadReq accesses
system.cpu.icache.demand_miss_rate::cpu.inst     0.000001                       # miss rate for demand accesses
system.cpu.icache.demand_miss_rate::total     0.000001                       # miss rate for demand accesses
system.cpu.icache.overall_miss_rate::cpu.inst     0.000001                       # miss rate for overall accesses
system.cpu.icache.overall_miss_rate::total     0.000001                       # miss rate for overall accesses
system.cpu.icache.ReadReq_avg_miss_latency::cpu.inst 184263.456091                       # average ReadReq miss latency
system.cpu.icache.ReadReq_avg_miss_latency::total 184263.456091                       # average ReadReq miss latency
system.cpu.icache.demand_avg_miss_latency::cpu.inst 184263.456091                       # average overall miss latency
system.cpu.icache.demand_avg_miss_latency::total 184263.456091                       # average overall miss latency
system.cpu.icache.overall_avg_miss_latency::cpu.inst 184263.456091                       # average overall miss latency
system.cpu.icache.overall_avg_miss_latency::total 184263.456091                       # average overall miss latency
system.cpu.icache.blocked_cycles::no_mshrs            0                       # number of cycles access was blocked
system.cpu.icache.blocked_cycles::no_targets            0                       # number of cycles access was blocked
system.cpu.icache.blocked::no_mshrs                 0                       # number of cycles access was blocked
system.cpu.icache.blocked::no_targets               0                       # number of cycles access was blocked
system.cpu.icache.avg_blocked_cycles::no_mshrs          nan                       # average number of cycles each access was blocked
system.cpu.icache.avg_blocked_cycles::no_targets          nan                       # average number of cycles each access was blocked
system.cpu.icache.writebacks::writebacks           45                       # number of writebacks
system.cpu.icache.writebacks::total                45                       # number of writebacks
system.cpu.icache.ReadReq_mshr_misses::cpu.inst          353                       # number of ReadReq MSHR misses
system.cpu.icache.ReadReq_mshr_misses::total          353                       # number of ReadReq MSHR misses
system.cpu.icache.demand_mshr_misses::cpu.inst          353                       # number of demand (read+write) MSHR misses
system.cpu.icache.demand_mshr_misses::total          353                       # number of demand (read+write) MSHR misses
system.cpu.icache.overall_mshr_misses::cpu.inst          353                       # number of overall MSHR misses
system.cpu.icache.overall_mshr_misses::total          353                       # number of overall MSHR misses
system.cpu.icache.ReadReq_mshr_miss_latency::cpu.inst     64692000                       # number of ReadReq MSHR miss cycles
system.cpu.icache.ReadReq_mshr_miss_latency::total     64692000                       # number of ReadReq MSHR miss cycles
system.cpu.icache.demand_mshr_miss_latency::cpu.inst     64692000                       # number of demand (read+write) MSHR miss cycles
system.cpu.icache.demand_mshr_miss_latency::total     64692000                       # number of demand (read+write) MSHR miss cycles
system.cpu.icache.overall_mshr_miss_latency::cpu.inst     64692000                       # number of overall MSHR miss cycles
system.cpu.icache.overall_mshr_miss_latency::total     64692000                       # number of overall MSHR miss cycles
system.cpu.icache.ReadReq_mshr_miss_rate::cpu.inst     0.000001                       # mshr miss rate for ReadReq accesses
system.cpu.icache.ReadReq_mshr_miss_rate::total     0.000001                       # mshr miss rate for ReadReq accesses
system.cpu.icache.demand_mshr_miss_rate::cpu.inst     0.000001                       # mshr miss rate for demand accesses
system.cpu.icache.demand_mshr_miss_rate::total     0.000001                       # mshr miss rate for demand accesses
system.cpu.icache.overall_mshr_miss_rate::cpu.inst     0.000001                       # mshr miss rate for overall accesses
system.cpu.icache.overall_mshr_miss_rate::total     0.000001                       # mshr miss rate for overall accesses
system.cpu.icache.ReadReq_avg_mshr_miss_latency::cpu.inst 183263.456091                       # average ReadReq mshr miss latency
system.cpu.icache.ReadReq_avg_mshr_miss_latency::total 183263.456091                       # average ReadReq mshr miss latency
system.cpu.icache.demand_avg_mshr_miss_latency::cpu.inst 183263.456091                       # average overall mshr miss latency
system.cpu.icache.demand_avg_mshr_miss_latency::total 183263.456091                       # average overall mshr miss latency
system.cpu.icache.overall_avg_mshr_miss_latency::cpu.inst 183263.456091                       # average overall mshr miss latency
system.cpu.icache.overall_avg_mshr_miss_latency::total 183263.456091                       # average overall mshr miss latency
system.cpu.icache.replacements                     45                       # number of replacements
system.cpu.itb_walker_cache.tags.pwrStateResidencyTicks::UNDEFINED 534616864000                       # Cumulative time (in ticks) in various power states
system.cpu.itb_walker_cache.tags.tagsinuse            0                       # Cycle average of tags in use
system.cpu.itb_walker_cache.tags.total_refs            0                       # Total number of references to valid blocks.
system.cpu.itb_walker_cache.tags.sampled_refs            0                       # Sample count of references to valid blocks.
system.cpu.itb_walker_cache.tags.avg_refs          nan                       # Average number of references to valid blocks.
system.cpu.itb_walker_cache.tags.warmup_cycle            0                       # Cycle when the warmup percentage was hit.
system.cpu.itb_walker_cache.tags.tag_accesses            0                       # Number of tag accesses
system.cpu.itb_walker_cache.tags.data_accesses            0                       # Number of data accesses
system.cpu.itb_walker_cache.pwrStateResidencyTicks::UNDEFINED 534616864000                       # Cumulative time (in ticks) in various power states
system.cpu.itb_walker_cache.blocked_cycles::no_mshrs            0                       # number of cycles access was blocked
system.cpu.itb_walker_cache.blocked_cycles::no_targets            0                       # number of cycles access was blocked
system.cpu.itb_walker_cache.blocked::no_mshrs            0                       # number of cycles access was blocked
system.cpu.itb_walker_cache.blocked::no_targets            0                       # number of cycles access was blocked
system.cpu.itb_walker_cache.avg_blocked_cycles::no_mshrs          nan                       # average number of cycles each access was blocked
system.cpu.itb_walker_cache.avg_blocked_cycles::no_targets          nan                       # average number of cycles each access was blocked
system.cpu.itb_walker_cache.replacements            0                       # number of replacements
system.l2.tags.pwrStateResidencyTicks::UNDEFINED 534616864000                       # Cumulative time (in ticks) in various power states
system.l2.tags.tagsinuse                  2043.031624                       # Cycle average of tags in use
system.l2.tags.total_refs                      814698                       # Total number of references to valid blocks.
system.l2.tags.sampled_refs                    248815                       # Sample count of references to valid blocks.
system.l2.tags.avg_refs                      3.274312                       # Average number of references to valid blocks.
system.l2.tags.warmup_cycle                    428500                       # Cycle when the warmup percentage was hit.
system.l2.tags.occ_blocks::writebacks        1.035781                       # Average occupied blocks per requestor
system.l2.tags.occ_blocks::cpu.inst          1.899051                       # Average occupied blocks per requestor
system.l2.tags.occ_blocks::cpu.data       2040.096791                       # Average occupied blocks per requestor
system.l2.tags.occ_percent::writebacks       0.000506                       # Average percentage of cache occupancy
system.l2.tags.occ_percent::cpu.inst         0.000927                       # Average percentage of cache occupancy
system.l2.tags.occ_percent::cpu.data         0.996141                       # Average percentage of cache occupancy
system.l2.tags.occ_percent::total            0.997574                       # Average percentage of cache occupancy
system.l2.tags.occ_task_id_blocks::1024          2048                       # Occupied blocks per task id
system.l2.tags.age_task_id_blocks_1024::0           31                       # Occupied blocks per task id
system.l2.tags.age_task_id_blocks_1024::1           44                       # Occupied blocks per task id
system.l2.tags.age_task_id_blocks_1024::3           53                       # Occupied blocks per task id
system.l2.tags.age_task_id_blocks_1024::4         1920                       # Occupied blocks per task id
system.l2.tags.occ_task_id_percent::1024            1                       # Percentage of cache occupancy per task id
system.l2.tags.tag_accesses                   6766399                       # Number of tag accesses
system.l2.tags.data_accesses                  6766399                       # Number of data accesses
system.l2.pwrStateResidencyTicks::UNDEFINED 534616864000                       # Cumulative time (in ticks) in various power states
system.l2.WritebackDirty_hits::writebacks       321030                       # number of WritebackDirty hits
system.l2.WritebackDirty_hits::total           321030                       # number of WritebackDirty hits
system.l2.WritebackClean_hits::writebacks           45                       # number of WritebackClean hits
system.l2.WritebackClean_hits::total               45                       # number of WritebackClean hits
system.l2.UpgradeReq_hits::cpu.data            110770                       # number of UpgradeReq hits
system.l2.UpgradeReq_hits::total               110770                       # number of UpgradeReq hits
system.l2.ReadExReq_hits::cpu.data               1436                       # number of ReadExReq hits
system.l2.ReadExReq_hits::total                  1436                       # number of ReadExReq hits
system.l2.ReadSharedReq_hits::cpu.data         102182                       # number of ReadSharedReq hits
system.l2.ReadSharedReq_hits::total            102182                       # number of ReadSharedReq hits
system.l2.demand_hits::cpu.data                103618                       # number of demand (read+write) hits
system.l2.demand_hits::total                   103618                       # number of demand (read+write) hits
system.l2.overall_hits::cpu.data               103618                       # number of overall hits
system.l2.overall_hits::total                  103618                       # number of overall hits
system.l2.ReadExReq_misses::cpu.data            31813                       # number of ReadExReq misses
system.l2.ReadExReq_misses::total               31813                       # number of ReadExReq misses
system.l2.ReadCleanReq_misses::cpu.inst           353                       # number of ReadCleanReq misses
system.l2.ReadCleanReq_misses::total              353                       # number of ReadCleanReq misses
system.l2.ReadSharedReq_misses::cpu.data       216590                       # number of ReadSharedReq misses
system.l2.ReadSharedReq_misses::total          216590                       # number of ReadSharedReq misses
system.l2.demand_misses::cpu.inst                 353                       # number of demand (read+write) misses
system.l2.demand_misses::cpu.data              248403                       # number of demand (read+write) misses
system.l2.demand_misses::total                 248756                       # number of demand (read+write) misses
system.l2.overall_misses::cpu.inst                353                       # number of overall misses
system.l2.overall_misses::cpu.data             248403                       # number of overall misses
system.l2.overall_misses::total                248756                       # number of overall misses
system.l2.ReadExReq_miss_latency::cpu.data   7042350500                       # number of ReadExReq miss cycles
system.l2.ReadExReq_miss_latency::total    7042350500                       # number of ReadExReq miss cycles
system.l2.ReadCleanReq_miss_latency::cpu.inst     64160500                       # number of ReadCleanReq miss cycles
system.l2.ReadCleanReq_miss_latency::total     64160500                       # number of ReadCleanReq miss cycles
system.l2.ReadSharedReq_miss_latency::cpu.data  39385416500                       # number of ReadSharedReq miss cycles
system.l2.ReadSharedReq_miss_latency::total  39385416500                       # number of ReadSharedReq miss cycles
system.l2.demand_miss_latency::cpu.inst      64160500                       # number of demand (read+write) miss cycles
system.l2.demand_miss_latency::cpu.data   46427767000                       # number of demand (read+write) miss cycles
system.l2.demand_miss_latency::total      46491927500                       # number of demand (read+write) miss cycles
system.l2.overall_miss_latency::cpu.inst     64160500                       # number of overall miss cycles
system.l2.overall_miss_latency::cpu.data  46427767000                       # number of overall miss cycles
system.l2.overall_miss_latency::total     46491927500                       # number of overall miss cycles
system.l2.WritebackDirty_accesses::writebacks       321030                       # number of WritebackDirty accesses(hits+misses)
system.l2.WritebackDirty_accesses::total       321030                       # number of WritebackDirty accesses(hits+misses)
system.l2.WritebackClean_accesses::writebacks           45                       # number of WritebackClean accesses(hits+misses)
system.l2.WritebackClean_accesses::total           45                       # number of WritebackClean accesses(hits+misses)
system.l2.UpgradeReq_accesses::cpu.data        110770                       # number of UpgradeReq accesses(hits+misses)
system.l2.UpgradeReq_accesses::total           110770                       # number of UpgradeReq accesses(hits+misses)
system.l2.ReadExReq_accesses::cpu.data          33249                       # number of ReadExReq accesses(hits+misses)
system.l2.ReadExReq_accesses::total             33249                       # number of ReadExReq accesses(hits+misses)
system.l2.ReadCleanReq_accesses::cpu.inst          353                       # number of ReadCleanReq accesses(hits+misses)
system.l2.ReadCleanReq_accesses::total            353                       # number of ReadCleanReq accesses(hits+misses)
system.l2.ReadSharedReq_accesses::cpu.data       318772                       # number of ReadSharedReq accesses(hits+misses)
system.l2.ReadSharedReq_accesses::total        318772                       # number of ReadSharedReq accesses(hits+misses)
system.l2.demand_accesses::cpu.inst               353                       # number of demand (read+write) accesses
system.l2.demand_accesses::cpu.data            352021                       # number of demand (read+write) accesses
system.l2.demand_accesses::total               352374                       # number of demand (read+write) accesses
system.l2.overall_accesses::cpu.inst              353                       # number of overall (read+write) accesses
system.l2.overall_accesses::cpu.data           352021                       # number of overall (read+write) accesses
system.l2.overall_accesses::total              352374                       # number of overall (read+write) accesses
system.l2.ReadExReq_miss_rate::cpu.data      0.956811                       # miss rate for ReadExReq accesses
system.l2.ReadExReq_miss_rate::total         0.956811                       # miss rate for ReadExReq accesses
system.l2.ReadCleanReq_miss_rate::cpu.inst            1                       # miss rate for ReadCleanReq accesses
system.l2.ReadCleanReq_miss_rate::total             1                       # miss rate for ReadCleanReq accesses
system.l2.ReadSharedReq_miss_rate::cpu.data     0.679451                       # miss rate for ReadSharedReq accesses
system.l2.ReadSharedReq_miss_rate::total     0.679451                       # miss rate for ReadSharedReq accesses
system.l2.demand_miss_rate::cpu.inst                1                       # miss rate for demand accesses
system.l2.demand_miss_rate::cpu.data         0.705648                       # miss rate for demand accesses
system.l2.demand_miss_rate::total            0.705943                       # miss rate for demand accesses
system.l2.overall_miss_rate::cpu.inst               1                       # miss rate for overall accesses
system.l2.overall_miss_rate::cpu.data        0.705648                       # miss rate for overall accesses
system.l2.overall_miss_rate::total           0.705943                       # miss rate for overall accesses
system.l2.ReadExReq_avg_miss_latency::cpu.data 221367.066922                       # average ReadExReq miss latency
system.l2.ReadExReq_avg_miss_latency::total 221367.066922                       # average ReadExReq miss latency
system.l2.ReadCleanReq_avg_miss_latency::cpu.inst 181757.790368                       # average ReadCleanReq miss latency
system.l2.ReadCleanReq_avg_miss_latency::total 181757.790368                       # average ReadCleanReq miss latency
system.l2.ReadSharedReq_avg_miss_latency::cpu.data 181843.189898                       # average ReadSharedReq miss latency
system.l2.ReadSharedReq_avg_miss_latency::total 181843.189898                       # average ReadSharedReq miss latency
system.l2.demand_avg_miss_latency::cpu.inst 181757.790368                       # average overall miss latency
system.l2.demand_avg_miss_latency::cpu.data 186905.017250                       # average overall miss latency
system.l2.demand_avg_miss_latency::total 186897.713020                       # average overall miss latency
system.l2.overall_avg_miss_latency::cpu.inst 181757.790368                       # average overall miss latency
system.l2.overall_avg_miss_latency::cpu.data 186905.017250                       # average overall miss latency
system.l2.overall_avg_miss_latency::total 186897.713020                       # average overall miss latency
system.l2.blocked_cycles::no_mshrs                  0                       # number of cycles access was blocked
system.l2.blocked_cycles::no_targets                0                       # number of cycles access was blocked
system.l2.blocked::no_mshrs                         0                       # number of cycles access was blocked
system.l2.blocked::no_targets                       0                       # number of cycles access was blocked
system.l2.avg_blocked_cycles::no_mshrs            nan                       # average number of cycles each access was blocked
system.l2.avg_blocked_cycles::no_targets          nan                       # average number of cycles each access was blocked
system.l2.writebacks::writebacks               238210                       # number of writebacks
system.l2.writebacks::total                    238210                       # number of writebacks
system.l2.ReadExReq_mshr_misses::cpu.data        31813                       # number of ReadExReq MSHR misses
system.l2.ReadExReq_mshr_misses::total          31813                       # number of ReadExReq MSHR misses
system.l2.ReadCleanReq_mshr_misses::cpu.inst          353                       # number of ReadCleanReq MSHR misses
system.l2.ReadCleanReq_mshr_misses::total          353                       # number of ReadCleanReq MSHR misses
system.l2.ReadSharedReq_mshr_misses::cpu.data       216590                       # number of ReadSharedReq MSHR misses
system.l2.ReadSharedReq_mshr_misses::total       216590                       # number of ReadSharedReq MSHR misses
system.l2.demand_mshr_misses::cpu.inst            353                       # number of demand (read+write) MSHR misses
system.l2.demand_mshr_misses::cpu.data         248403                       # number of demand (read+write) MSHR misses
system.l2.demand_mshr_misses::total            248756                       # number of demand (read+write) MSHR misses
system.l2.overall_mshr_misses::cpu.inst           353                       # number of overall MSHR misses
system.l2.overall_mshr_misses::cpu.data        248403                       # number of overall MSHR misses
system.l2.overall_mshr_misses::total           248756                       # number of overall MSHR misses
system.l2.ReadExReq_mshr_miss_latency::cpu.data   6724220500                       # number of ReadExReq MSHR miss cycles
system.l2.ReadExReq_mshr_miss_latency::total   6724220500                       # number of ReadExReq MSHR miss cycles
system.l2.ReadCleanReq_mshr_miss_latency::cpu.inst     60630500                       # number of ReadCleanReq MSHR miss cycles
system.l2.ReadCleanReq_mshr_miss_latency::total     60630500                       # number of ReadCleanReq MSHR miss cycles
system.l2.ReadSharedReq_mshr_miss_latency::cpu.data  37219516500                       # number of ReadSharedReq MSHR miss cycles
system.l2.ReadSharedReq_mshr_miss_latency::total  37219516500                       # number of ReadSharedReq MSHR miss cycles
system.l2.demand_mshr_miss_latency::cpu.inst     60630500                       # number of demand (read+write) MSHR miss cycles
system.l2.demand_mshr_miss_latency::cpu.data  43943737000                       # number of demand (read+write) MSHR miss cycles
system.l2.demand_mshr_miss_latency::total  44004367500                       # number of demand (read+write) MSHR miss cycles
system.l2.overall_mshr_miss_latency::cpu.inst     60630500                       # number of overall MSHR miss cycles
system.l2.overall_mshr_miss_latency::cpu.data  43943737000                       # number of overall MSHR miss cycles
system.l2.overall_mshr_miss_latency::total  44004367500                       # number of overall MSHR miss cycles
system.l2.ReadExReq_mshr_miss_rate::cpu.data     0.956811                       # mshr miss rate for ReadExReq accesses
system.l2.ReadExReq_mshr_miss_rate::total     0.956811                       # mshr miss rate for ReadExReq accesses
system.l2.ReadCleanReq_mshr_miss_rate::cpu.inst            1                       # mshr miss rate for ReadCleanReq accesses
system.l2.ReadCleanReq_mshr_miss_rate::total            1                       # mshr miss rate for ReadCleanReq accesses
system.l2.ReadSharedReq_mshr_miss_rate::cpu.data     0.679451                       # mshr miss rate for ReadSharedReq accesses
system.l2.ReadSharedReq_mshr_miss_rate::total     0.679451                       # mshr miss rate for ReadSharedReq accesses
system.l2.demand_mshr_miss_rate::cpu.inst            1                       # mshr miss rate for demand accesses
system.l2.demand_mshr_miss_rate::cpu.data     0.705648                       # mshr miss rate for demand accesses
system.l2.demand_mshr_miss_rate::total       0.705943                       # mshr miss rate for demand accesses
system.l2.overall_mshr_miss_rate::cpu.inst            1                       # mshr miss rate for overall accesses
system.l2.overall_mshr_miss_rate::cpu.data     0.705648                       # mshr miss rate for overall accesses
system.l2.overall_mshr_miss_rate::total      0.705943                       # mshr miss rate for overall accesses
system.l2.ReadExReq_avg_mshr_miss_latency::cpu.data 211367.066922                       # average ReadExReq mshr miss latency
system.l2.ReadExReq_avg_mshr_miss_latency::total 211367.066922                       # average ReadExReq mshr miss latency
system.l2.ReadCleanReq_avg_mshr_miss_latency::cpu.inst 171757.790368                       # average ReadCleanReq mshr miss latency
system.l2.ReadCleanReq_avg_mshr_miss_latency::total 171757.790368                       # average ReadCleanReq mshr miss latency
system.l2.ReadSharedReq_avg_mshr_miss_latency::cpu.data 171843.189898                       # average ReadSharedReq mshr miss latency
system.l2.ReadSharedReq_avg_mshr_miss_latency::total 171843.189898                       # average ReadSharedReq mshr miss latency
system.l2.demand_avg_mshr_miss_latency::cpu.inst 171757.790368                       # average overall mshr miss latency
system.l2.demand_avg_mshr_miss_latency::cpu.data 176905.017250                       # average overall mshr miss latency
system.l2.demand_avg_mshr_miss_latency::total 176897.713020                       # average overall mshr miss latency
system.l2.overall_avg_mshr_miss_latency::cpu.inst 171757.790368                       # average overall mshr miss latency
system.l2.overall_avg_mshr_miss_latency::cpu.data 176905.017250                       # average overall mshr miss latency
system.l2.overall_avg_mshr_miss_latency::total 176897.713020                       # average overall mshr miss latency
system.l2.replacements                         246767                       # number of replacements
system.l3.tags.pwrStateResidencyTicks::UNDEFINED 534616864000                       # Cumulative time (in ticks) in various power states
system.l3.tags.tagsinuse                 15905.118888                       # Cycle average of tags in use
system.l3.tags.total_refs                      495194                       # Total number of references to valid blocks.
system.l3.tags.sampled_refs                    110097                       # Sample count of references to valid blocks.
system.l3.tags.avg_refs                      4.497797                       # Average number of references to valid blocks.
system.l3.tags.warmup_cycle                    418000                       # Cycle when the warmup percentage was hit.
system.l3.tags.occ_blocks::writebacks        1.437410                       # Average occupied blocks per requestor
system.l3.tags.occ_blocks::cpu.inst         16.860117                       # Average occupied blocks per requestor
system.l3.tags.occ_blocks::cpu.data      15886.821362                       # Average occupied blocks per requestor
system.l3.tags.occ_percent::writebacks       0.000088                       # Average percentage of cache occupancy
system.l3.tags.occ_percent::cpu.inst         0.001029                       # Average percentage of cache occupancy
system.l3.tags.occ_percent::cpu.data         0.969655                       # Average percentage of cache occupancy
system.l3.tags.occ_percent::total            0.970771                       # Average percentage of cache occupancy
system.l3.tags.occ_task_id_blocks::1024         16384                       # Occupied blocks per task id
system.l3.tags.age_task_id_blocks_1024::0           26                       # Occupied blocks per task id
system.l3.tags.age_task_id_blocks_1024::1           38                       # Occupied blocks per task id
system.l3.tags.age_task_id_blocks_1024::4        16320                       # Occupied blocks per task id
system.l3.tags.occ_task_id_percent::1024            1                       # Percentage of cache occupancy per task id
system.l3.tags.tag_accesses                   2090873                       # Number of tag accesses
system.l3.tags.data_accesses                  2090873                       # Number of data accesses
system.l3.pwrStateResidencyTicks::UNDEFINED 534616864000                       # Cumulative time (in ticks) in various power states
system.l3.WritebackDirty_hits::writebacks       238210                       # number of WritebackDirty hits
system.l3.WritebackDirty_hits::total           238210                       # number of WritebackDirty hits
system.l3.ReadExReq_hits::cpu.data                381                       # number of ReadExReq hits
system.l3.ReadExReq_hits::total                   381                       # number of ReadExReq hits
system.l3.ReadSharedReq_hits::cpu.data         138289                       # number of ReadSharedReq hits
system.l3.ReadSharedReq_hits::total            138289                       # number of ReadSharedReq hits
system.l3.demand_hits::cpu.data                138670                       # number of demand (read+write) hits
system.l3.demand_hits::total                   138670                       # number of demand (read+write) hits
system.l3.overall_hits::cpu.data               138670                       # number of overall hits
system.l3.overall_hits::total                  138670                       # number of overall hits
system.l3.ReadExReq_misses::cpu.data            31432                       # number of ReadExReq misses
system.l3.ReadExReq_misses::total               31432                       # number of ReadExReq misses
system.l3.ReadSharedReq_misses::cpu.inst          353                       # number of ReadSharedReq misses
system.l3.ReadSharedReq_misses::cpu.data        78301                       # number of ReadSharedReq misses
system.l3.ReadSharedReq_misses::total           78654                       # number of ReadSharedReq misses
system.l3.demand_misses::cpu.inst                 353                       # number of demand (read+write) misses
system.l3.demand_misses::cpu.data              109733                       # number of demand (read+write) misses
system.l3.demand_misses::total                 110086                       # number of demand (read+write) misses
system.l3.overall_misses::cpu.inst                353                       # number of overall misses
system.l3.overall_misses::cpu.data             109733                       # number of overall misses
system.l3.overall_misses::total                110086                       # number of overall misses
system.l3.ReadExReq_miss_latency::cpu.data   6370277000                       # number of ReadExReq miss cycles
system.l3.ReadExReq_miss_latency::total    6370277000                       # number of ReadExReq miss cycles
system.l3.ReadSharedReq_miss_latency::cpu.inst     56747500                       # number of ReadSharedReq miss cycles
system.l3.ReadSharedReq_miss_latency::cpu.data  33384992000                       # number of ReadSharedReq miss cycles
system.l3.ReadSharedReq_miss_latency::total  33441739500                       # number of ReadSharedReq miss cycles
system.l3.demand_miss_latency::cpu.inst      56747500                       # number of demand (read+write) miss cycles
system.l3.demand_miss_latency::cpu.data   39755269000                       # number of demand (read+write) miss cycles
system.l3.demand_miss_latency::total      39812016500                       # number of demand (read+write) miss cycles
system.l3.overall_miss_latency::cpu.inst     56747500                       # number of overall miss cycles
system.l3.overall_miss_latency::cpu.data  39755269000                       # number of overall miss cycles
system.l3.overall_miss_latency::total     39812016500                       # number of overall miss cycles
system.l3.WritebackDirty_accesses::writebacks       238210                       # number of WritebackDirty accesses(hits+misses)
system.l3.WritebackDirty_accesses::total       238210                       # number of WritebackDirty accesses(hits+misses)
system.l3.ReadExReq_accesses::cpu.data          31813                       # number of ReadExReq accesses(hits+misses)
system.l3.ReadExReq_accesses::total             31813                       # number of ReadExReq accesses(hits+misses)
system.l3.ReadSharedReq_accesses::cpu.inst          353                       # number of ReadSharedReq accesses(hits+misses)
system.l3.ReadSharedReq_accesses::cpu.data       216590                       # number of ReadSharedReq accesses(hits+misses)
system.l3.ReadSharedReq_accesses::total        216943                       # number of ReadSharedReq accesses(hits+misses)
system.l3.demand_accesses::cpu.inst               353                       # number of demand (read+write) accesses
system.l3.demand_accesses::cpu.data            248403                       # number of demand (read+write) accesses
system.l3.demand_accesses::total               248756                       # number of demand (read+write) accesses
system.l3.overall_accesses::cpu.inst              353                       # number of overall (read+write) accesses
system.l3.overall_accesses::cpu.data           248403                       # number of overall (read+write) accesses
system.l3.overall_accesses::total              248756                       # number of overall (read+write) accesses
system.l3.ReadExReq_miss_rate::cpu.data      0.988024                       # miss rate for ReadExReq accesses
system.l3.ReadExReq_miss_rate::total         0.988024                       # miss rate for ReadExReq accesses
system.l3.ReadSharedReq_miss_rate::cpu.inst            1                       # miss rate for ReadSharedReq accesses
system.l3.ReadSharedReq_miss_rate::cpu.data     0.361517                       # miss rate for ReadSharedReq accesses
system.l3.ReadSharedReq_miss_rate::total     0.362556                       # miss rate for ReadSharedReq accesses
system.l3.demand_miss_rate::cpu.inst                1                       # miss rate for demand accesses
system.l3.demand_miss_rate::cpu.data         0.441754                       # miss rate for demand accesses
system.l3.demand_miss_rate::total            0.442546                       # miss rate for demand accesses
system.l3.overall_miss_rate::cpu.inst               1                       # miss rate for overall accesses
system.l3.overall_miss_rate::cpu.data        0.441754                       # miss rate for overall accesses
system.l3.overall_miss_rate::total           0.442546                       # miss rate for overall accesses
system.l3.ReadExReq_avg_miss_latency::cpu.data 202668.522525                       # average ReadExReq miss latency
system.l3.ReadExReq_avg_miss_latency::total 202668.522525                       # average ReadExReq miss latency
system.l3.ReadSharedReq_avg_miss_latency::cpu.inst 160757.790368                       # average ReadSharedReq miss latency
system.l3.ReadSharedReq_avg_miss_latency::cpu.data 426367.377173                       # average ReadSharedReq miss latency
system.l3.ReadSharedReq_avg_miss_latency::total 425175.318483                       # average ReadSharedReq miss latency
system.l3.demand_avg_miss_latency::cpu.inst 160757.790368                       # average overall miss latency
system.l3.demand_avg_miss_latency::cpu.data 362290.915221                       # average overall miss latency
system.l3.demand_avg_miss_latency::total 361644.682339                       # average overall miss latency
system.l3.overall_avg_miss_latency::cpu.inst 160757.790368                       # average overall miss latency
system.l3.overall_avg_miss_latency::cpu.data 362290.915221                       # average overall miss latency
system.l3.overall_avg_miss_latency::total 361644.682339                       # average overall miss latency
system.l3.blocked_cycles::no_mshrs                  0                       # number of cycles access was blocked
system.l3.blocked_cycles::no_targets                0                       # number of cycles access was blocked
system.l3.blocked::no_mshrs                         0                       # number of cycles access was blocked
system.l3.blocked::no_targets                       0                       # number of cycles access was blocked
system.l3.avg_blocked_cycles::no_mshrs            nan                       # average number of cycles each access was blocked
system.l3.avg_blocked_cycles::no_targets          nan                       # average number of cycles each access was blocked
system.l3.writebacks::writebacks                91095                       # number of writebacks
system.l3.writebacks::total                     91095                       # number of writebacks
system.l3.ReadExReq_mshr_misses::cpu.data        31432                       # number of ReadExReq MSHR misses
system.l3.ReadExReq_mshr_misses::total          31432                       # number of ReadExReq MSHR misses
system.l3.ReadSharedReq_mshr_misses::cpu.inst          353                       # number of ReadSharedReq MSHR misses
system.l3.ReadSharedReq_mshr_misses::cpu.data        78301                       # number of ReadSharedReq MSHR misses
system.l3.ReadSharedReq_mshr_misses::total        78654                       # number of ReadSharedReq MSHR misses
system.l3.demand_mshr_misses::cpu.inst            353                       # number of demand (read+write) MSHR misses
system.l3.demand_mshr_misses::cpu.data         109733                       # number of demand (read+write) MSHR misses
system.l3.demand_mshr_misses::total            110086                       # number of demand (read+write) MSHR misses
system.l3.overall_mshr_misses::cpu.inst           353                       # number of overall MSHR misses
system.l3.overall_mshr_misses::cpu.data        109733                       # number of overall MSHR misses
system.l3.overall_mshr_misses::total           110086                       # number of overall MSHR misses
system.l3.ReadExReq_mshr_miss_latency::cpu.data   6055957000                       # number of ReadExReq MSHR miss cycles
system.l3.ReadExReq_mshr_miss_latency::total   6055957000                       # number of ReadExReq MSHR miss cycles
system.l3.ReadSharedReq_mshr_miss_latency::cpu.inst     53217500                       # number of ReadSharedReq MSHR miss cycles
system.l3.ReadSharedReq_mshr_miss_latency::cpu.data  32601982000                       # number of ReadSharedReq MSHR miss cycles
system.l3.ReadSharedReq_mshr_miss_latency::total  32655199500                       # number of ReadSharedReq MSHR miss cycles
system.l3.demand_mshr_miss_latency::cpu.inst     53217500                       # number of demand (read+write) MSHR miss cycles
system.l3.demand_mshr_miss_latency::cpu.data  38657939000                       # number of demand (read+write) MSHR miss cycles
system.l3.demand_mshr_miss_latency::total  38711156500                       # number of demand (read+write) MSHR miss cycles
system.l3.overall_mshr_miss_latency::cpu.inst     53217500                       # number of overall MSHR miss cycles
system.l3.overall_mshr_miss_latency::cpu.data  38657939000                       # number of overall MSHR miss cycles
system.l3.overall_mshr_miss_latency::total  38711156500                       # number of overall MSHR miss cycles
system.l3.ReadExReq_mshr_miss_rate::cpu.data     0.988024                       # mshr miss rate for ReadExReq accesses
system.l3.ReadExReq_mshr_miss_rate::total     0.988024                       # mshr miss rate for ReadExReq accesses
system.l3.ReadSharedReq_mshr_miss_rate::cpu.inst            1                       # mshr miss rate for ReadSharedReq accesses
system.l3.ReadSharedReq_mshr_miss_rate::cpu.data     0.361517                       # mshr miss rate for ReadSharedReq accesses
system.l3.ReadSharedReq_mshr_miss_rate::total     0.362556                       # mshr miss rate for ReadSharedReq accesses
system.l3.demand_mshr_miss_rate::cpu.inst            1                       # mshr miss rate for demand accesses
system.l3.demand_mshr_miss_rate::cpu.data     0.441754                       # mshr miss rate for demand accesses
system.l3.demand_mshr_miss_rate::total       0.442546                       # mshr miss rate for demand accesses
system.l3.overall_mshr_miss_rate::cpu.inst            1                       # mshr miss rate for overall accesses
system.l3.overall_mshr_miss_rate::cpu.data     0.441754                       # mshr miss rate for overall accesses
system.l3.overall_mshr_miss_rate::total      0.442546                       # mshr miss rate for overall accesses
system.l3.ReadExReq_avg_mshr_miss_latency::cpu.data 192668.522525                       # average ReadExReq mshr miss latency
system.l3.ReadExReq_avg_mshr_miss_latency::total 192668.522525                       # average ReadExReq mshr miss latency
system.l3.ReadSharedReq_avg_mshr_miss_latency::cpu.inst 150757.790368                       # average ReadSharedReq mshr miss latency
system.l3.ReadSharedReq_avg_mshr_miss_latency::cpu.data 416367.377173                       # average ReadSharedReq mshr miss latency
system.l3.ReadSharedReq_avg_mshr_miss_latency::total 415175.318483                       # average ReadSharedReq mshr miss latency
system.l3.demand_avg_mshr_miss_latency::cpu.inst 150757.790368                       # average overall mshr miss latency
system.l3.demand_avg_mshr_miss_latency::cpu.data 352290.915221                       # average overall mshr miss latency
system.l3.demand_avg_mshr_miss_latency::total 351644.682339                       # average overall mshr miss latency
system.l3.overall_avg_mshr_miss_latency::cpu.inst 150757.790368                       # average overall mshr miss latency
system.l3.overall_avg_mshr_miss_latency::cpu.data 352290.915221                       # average overall mshr miss latency
system.l3.overall_avg_mshr_miss_latency::total 351644.682339                       # average overall mshr miss latency
system.l3.replacements                          93713                       # number of replacements
system.membus.snoop_filter.tot_requests        203508                       # Total number of requests made to the snoop filter.
system.membus.snoop_filter.hit_single_requests        93422                       # Number of requests hitting in the snoop filter with a single holder of the requested data.
system.membus.snoop_filter.hit_multi_requests            0                       # Number of requests hitting in the snoop filter with multiple (>1) holders of the requested data.
system.membus.snoop_filter.tot_snoops               0                       # Total number of snoops made to the snoop filter.
system.membus.snoop_filter.hit_single_snoops            0                       # Number of snoops hitting in the snoop filter with a single holder of the requested data.
system.membus.snoop_filter.hit_multi_snoops            0                       # Number of snoops hitting in the snoop filter with multiple (>1) holders of the requested data.
system.membus.pwrStateResidencyTicks::UNDEFINED 534616864000                       # Cumulative time (in ticks) in various power states
system.membus.trans_dist::ReadResp              78654                       # Transaction distribution
system.membus.trans_dist::WritebackDirty        91095                       # Transaction distribution
system.membus.trans_dist::CleanEvict             2327                       # Transaction distribution
system.membus.trans_dist::ReadExReq             31432                       # Transaction distribution
system.membus.trans_dist::ReadExResp            31432                       # Transaction distribution
system.membus.trans_dist::ReadSharedReq         78654                       # Transaction distribution
system.membus.pkt_count_system.l3.mem_side::system.mem_ctrls.port       313594                       # Packet count per connected master and slave (bytes)
system.membus.pkt_count_system.l3.mem_side::total       313594                       # Packet count per connected master and slave (bytes)
system.membus.pkt_count::total                 313594                       # Packet count per connected master and slave (bytes)
system.membus.pkt_size_system.l3.mem_side::system.mem_ctrls.port     12875584                       # Cumulative packet size per connected master and slave (bytes)
system.membus.pkt_size_system.l3.mem_side::total     12875584                       # Cumulative packet size per connected master and slave (bytes)
system.membus.pkt_size::total                12875584                       # Cumulative packet size per connected master and slave (bytes)
system.membus.snoops                                0                       # Total snoops (count)
system.membus.snoopTraffic                          0                       # Total snoop traffic (bytes)
system.membus.snoop_fanout::samples            110086                       # Request fanout histogram
system.membus.snoop_fanout::mean                    0                       # Request fanout histogram
system.membus.snoop_fanout::stdev                   0                       # Request fanout histogram
system.membus.snoop_fanout::underflows              0      0.00%      0.00% # Request fanout histogram
system.membus.snoop_fanout::0                  110086    100.00%    100.00% # Request fanout histogram
system.membus.snoop_fanout::1                       0      0.00%    100.00% # Request fanout histogram
system.membus.snoop_fanout::overflows               0      0.00%    100.00% # Request fanout histogram
system.membus.snoop_fanout::min_value               0                       # Request fanout histogram
system.membus.snoop_fanout::max_value               0                       # Request fanout histogram
system.membus.snoop_fanout::total              110086                       # Request fanout histogram
system.membus.reqLayer2.occupancy           567891500                       # Layer occupancy (ticks)
system.membus.reqLayer2.utilization               0.1                       # Layer utilization (%)
system.membus.respLayer1.occupancy          550433500                       # Layer occupancy (ticks)
system.membus.respLayer1.utilization              0.1                       # Layer utilization (%)
system.tol2bus.snoop_filter.tot_requests       814698                       # Total number of requests made to the snoop filter.
system.tol2bus.snoop_filter.hit_single_requests       462324                       # Number of requests hitting in the snoop filter with a single holder of the requested data.
system.tol2bus.snoop_filter.hit_multi_requests            0                       # Number of requests hitting in the snoop filter with multiple (>1) holders of the requested data.
system.tol2bus.snoop_filter.tot_snoops            620                       # Total number of snoops made to the snoop filter.
system.tol2bus.snoop_filter.hit_single_snoops          620                       # Number of snoops hitting in the snoop filter with a single holder of the requested data.
system.tol2bus.snoop_filter.hit_multi_snoops            0                       # Number of snoops hitting in the snoop filter with multiple (>1) holders of the requested data.
system.tol2bus.pwrStateResidencyTicks::UNDEFINED 534616864000                       # Cumulative time (in ticks) in various power states
system.tol2bus.trans_dist::ReadResp            319125                       # Transaction distribution
system.tol2bus.trans_dist::WritebackDirty       559240                       # Transaction distribution
system.tol2bus.trans_dist::WritebackClean           45                       # Transaction distribution
system.tol2bus.trans_dist::CleanEvict           39327                       # Transaction distribution
system.tol2bus.trans_dist::UpgradeReq          110770                       # Transaction distribution
system.tol2bus.trans_dist::UpgradeResp         110770                       # Transaction distribution
system.tol2bus.trans_dist::ReadExReq            33249                       # Transaction distribution
system.tol2bus.trans_dist::ReadExResp           33249                       # Transaction distribution
system.tol2bus.trans_dist::ReadCleanReq           353                       # Transaction distribution
system.tol2bus.trans_dist::ReadSharedReq       318772                       # Transaction distribution
system.tol2bus.pkt_count_system.cpu.icache.mem_side::system.l2.cpu_side          751                       # Packet count per connected master and slave (bytes)
system.tol2bus.pkt_count_system.cpu.dcache.mem_side::system.l2.cpu_side      1277091                       # Packet count per connected master and slave (bytes)
system.tol2bus.pkt_count::total               1277842                       # Packet count per connected master and slave (bytes)
system.tol2bus.pkt_size_system.cpu.icache.mem_side::system.l2.cpu_side        25472                       # Cumulative packet size per connected master and slave (bytes)
system.tol2bus.pkt_size_system.cpu.dcache.mem_side::system.l2.cpu_side     43075264                       # Cumulative packet size per connected master and slave (bytes)
system.tol2bus.pkt_size::total               43100736                       # Cumulative packet size per connected master and slave (bytes)
system.tol2bus.snoops                          247058                       # Total snoops (count)
system.tol2bus.snoopTraffic                  15245440                       # Total snoop traffic (bytes)
system.tol2bus.snoop_fanout::samples           710202                       # Request fanout histogram
system.tol2bus.snoop_fanout::mean            0.000873                       # Request fanout histogram
system.tol2bus.snoop_fanout::stdev           0.029534                       # Request fanout histogram
system.tol2bus.snoop_fanout::underflows             0      0.00%      0.00% # Request fanout histogram
system.tol2bus.snoop_fanout::0                 709582     99.91%     99.91% # Request fanout histogram
system.tol2bus.snoop_fanout::1                    620      0.09%    100.00% # Request fanout histogram
system.tol2bus.snoop_fanout::2                      0      0.00%    100.00% # Request fanout histogram
system.tol2bus.snoop_fanout::3                      0      0.00%    100.00% # Request fanout histogram
system.tol2bus.snoop_fanout::4                      0      0.00%    100.00% # Request fanout histogram
system.tol2bus.snoop_fanout::overflows              0      0.00%    100.00% # Request fanout histogram
system.tol2bus.snoop_fanout::min_value              0                       # Request fanout histogram
system.tol2bus.snoop_fanout::max_value              1                       # Request fanout histogram
system.tol2bus.snoop_fanout::total             710202                       # Request fanout histogram
system.tol2bus.reqLayer0.occupancy          728424000                       # Layer occupancy (ticks)
system.tol2bus.reqLayer0.utilization              0.1                       # Layer utilization (%)
system.tol2bus.respLayer0.occupancy            529500                       # Layer occupancy (ticks)
system.tol2bus.respLayer0.utilization             0.0                       # Layer utilization (%)
system.tol2bus.respLayer1.occupancy         583416500                       # Layer occupancy (ticks)
system.tol2bus.respLayer1.utilization             0.1                       # Layer utilization (%)
system.tol3bus.snoop_filter.tot_requests       495194                       # Total number of requests made to the snoop filter.
system.tol3bus.snoop_filter.hit_single_requests       246438                       # Number of requests hitting in the snoop filter with a single holder of the requested data.
system.tol3bus.snoop_filter.hit_multi_requests            0                       # Number of requests hitting in the snoop filter with multiple (>1) holders of the requested data.
system.tol3bus.snoop_filter.tot_snoops            291                       # Total number of snoops made to the snoop filter.
system.tol3bus.snoop_filter.hit_single_snoops          291                       # Number of snoops hitting in the snoop filter with a single holder of the requested data.
system.tol3bus.snoop_filter.hit_multi_snoops            0                       # Number of snoops hitting in the snoop filter with multiple (>1) holders of the requested data.
system.tol3bus.pwrStateResidencyTicks::UNDEFINED 534616864000                       # Cumulative time (in ticks) in various power states
system.tol3bus.trans_dist::ReadResp            216943                       # Transaction distribution
system.tol3bus.trans_dist::WritebackDirty       329305                       # Transaction distribution
system.tol3bus.trans_dist::CleanEvict           10846                       # Transaction distribution
system.tol3bus.trans_dist::ReadExReq            31813                       # Transaction distribution
system.tol3bus.trans_dist::ReadExResp           31813                       # Transaction distribution
system.tol3bus.trans_dist::ReadSharedReq       216943                       # Transaction distribution
system.tol3bus.pkt_count_system.l2.mem_side::system.l3.cpu_side       743950                       # Packet count per connected master and slave (bytes)
system.tol3bus.pkt_size_system.l2.mem_side::system.l3.cpu_side     31165824                       # Cumulative packet size per connected master and slave (bytes)
system.tol3bus.snoops                           93713                       # Total snoops (count)
system.tol3bus.snoopTraffic                   5830080                       # Total snoop traffic (bytes)
system.tol3bus.snoop_fanout::samples           342469                       # Request fanout histogram
system.tol3bus.snoop_fanout::mean            0.000850                       # Request fanout histogram
system.tol3bus.snoop_fanout::stdev           0.029137                       # Request fanout histogram
system.tol3bus.snoop_fanout::underflows             0      0.00%      0.00% # Request fanout histogram
system.tol3bus.snoop_fanout::0                 342178     99.92%     99.92% # Request fanout histogram
system.tol3bus.snoop_fanout::1                    291      0.08%    100.00% # Request fanout histogram
system.tol3bus.snoop_fanout::overflows              0      0.00%    100.00% # Request fanout histogram
system.tol3bus.snoop_fanout::min_value              0                       # Request fanout histogram
system.tol3bus.snoop_fanout::max_value              1                       # Request fanout histogram
system.tol3bus.snoop_fanout::total             342469                       # Request fanout histogram
system.tol3bus.reqLayer0.occupancy          485807000                       # Layer occupancy (ticks)
system.tol3bus.reqLayer0.utilization              0.1                       # Layer utilization (%)
system.tol3bus.respLayer0.occupancy         373134000                       # Layer occupancy (ticks)
system.tol3bus.respLayer0.utilization             0.1                       # Layer utilization (%)

---------- End Simulation Statistics   ----------
