
---------- Begin Simulation Statistics ----------
sim_seconds                                  0.533567                       # Number of seconds simulated
sim_ticks                                533566784000                       # Number of ticks simulated
final_tick                               533566784000                       # Number of ticks from beginning of simulation (restored from checkpoints and never reset)
sim_freq                                 1000000000000                       # Frequency of simulated ticks
host_inst_rate                                 883350                       # Simulator instruction rate (inst/s)
host_op_rate                                  1440603                       # Simulator op (including micro ops) rate (op/s)
host_tick_rate                             1891648008                       # Simulator tick rate (ticks/s)
host_mem_usage                                 622396                       # Number of bytes of host memory used
host_seconds                                   282.07                       # Real time elapsed on the host
sim_insts                                   249161735                       # Number of instructions simulated
sim_ops                                     406343042                       # Number of ops (including micro ops) simulated
system.voltage_domain.voltage                       1                       # Voltage in Volts
system.clk_domain.clock                          1000                       # Clock period in ticks
system.mem_ctrls.pwrStateResidencyTicks::UNDEFINED 533566784000                       # Cumulative time (in ticks) in various power states
system.mem_ctrls.bytes_read::cpu.inst           22592                       # Number of bytes read from this memory
system.mem_ctrls.bytes_read::cpu.data         7469824                       # Number of bytes read from this memory
system.mem_ctrls.bytes_read::total            7492416                       # Number of bytes read from this memory
system.mem_ctrls.bytes_inst_read::cpu.inst        22592                       # Number of instructions bytes read from this memory
system.mem_ctrls.bytes_inst_read::total         22592                       # Number of instructions bytes read from this memory
system.mem_ctrls.bytes_written::writebacks      6284160                       # Number of bytes written to this memory
system.mem_ctrls.bytes_written::total         6284160                       # Number of bytes written to this memory
system.mem_ctrls.num_reads::cpu.inst              353                       # Number of read requests responded to by this memory
system.mem_ctrls.num_reads::cpu.data           116716                       # Number of read requests responded to by this memory
system.mem_ctrls.num_reads::total              117069                       # Number of read requests responded to by this memory
system.mem_ctrls.num_writes::writebacks         98190                       # Number of write requests responded to by this memory
system.mem_ctrls.num_writes::total              98190                       # Number of write requests responded to by this memory
system.mem_ctrls.bw_read::cpu.inst              42341                       # Total read bandwidth from this memory (bytes/s)
system.mem_ctrls.bw_read::cpu.data           13999792                       # Total read bandwidth from this memory (bytes/s)
system.mem_ctrls.bw_read::total              14042133                       # Total read bandwidth from this memory (bytes/s)
system.mem_ctrls.bw_inst_read::cpu.inst         42341                       # Instruction read bandwidth from this memory (bytes/s)
system.mem_ctrls.bw_inst_read::total            42341                       # Instruction read bandwidth from this memory (bytes/s)
system.mem_ctrls.bw_write::writebacks        11777645                       # Write bandwidth from this memory (bytes/s)
system.mem_ctrls.bw_write::total             11777645                       # Write bandwidth from this memory (bytes/s)
system.mem_ctrls.bw_total::writebacks        11777645                       # Total bandwidth to/from this memory (bytes/s)
system.mem_ctrls.bw_total::cpu.inst             42341                       # Total bandwidth to/from this memory (bytes/s)
system.mem_ctrls.bw_total::cpu.data          13999792                       # Total bandwidth to/from this memory (bytes/s)
system.mem_ctrls.bw_total::total             25819778                       # Total bandwidth to/from this memory (bytes/s)
system.pwrStateResidencyTicks::UNDEFINED 533566784000                       # Cumulative time (in ticks) in various power states
system.cpu_voltage_domain.voltage                   1                       # Voltage in Volts
system.cpu_clk_domain.clock                       500                       # Clock period in ticks
system.cpu.dtb.walker.pwrStateResidencyTicks::UNDEFINED 533566784000                       # Cumulative time (in ticks) in various power states
system.cpu.dtb.rdAccesses                   118033992                       # TLB accesses on read requests
system.cpu.dtb.wrAccesses                    31915272                       # TLB accesses on write requests
system.cpu.dtb.rdMisses                          2737                       # TLB misses on read requests
system.cpu.dtb.wrMisses                           497                       # TLB misses on write requests
system.cpu.apic_clk_domain.clock                 8000                       # Clock period in ticks
system.cpu.interrupts.pwrStateResidencyTicks::UNDEFINED 533566784000                       # Cumulative time (in ticks) in various power states
system.cpu.itb.walker.pwrStateResidencyTicks::UNDEFINED 533566784000                       # Cumulative time (in ticks) in various power states
system.cpu.itb.rdAccesses                           0                       # TLB accesses on read requests
system.cpu.itb.wrAccesses                   335229882                       # TLB accesses on write requests
system.cpu.itb.rdMisses                             0                       # TLB misses on read requests
system.cpu.itb.wrMisses                            36                       # TLB misses on write requests
system.cpu.workload.numSyscalls                     9                       # Number of system calls
system.cpu.pwrStateResidencyTicks::ON    533566784000                       # Cumulative time (in ticks) in various power states
system.cpu.numCycles                       1067133568                       # number of cpu cycles simulated
system.cpu.numWorkItemsStarted                      0                       # number of work items this cpu started
system.cpu.numWorkItemsCompleted                    0                       # number of work items this cpu completed
system.cpu.committedInsts                   249161735                       # Number of instructions committed
system.cpu.committedOps                     406343042                       # Number of ops (including micro ops) committed
system.cpu.num_int_alu_accesses             403870578                       # Number of integer alu accesses
system.cpu.num_fp_alu_accesses                   1943                       # Number of float alu accesses
system.cpu.num_vec_alu_accesses                     0                       # Number of vector alu accesses
system.cpu.num_func_calls                     4727228                       # number of times a function call or return occured
system.cpu.num_conditional_control_insts     23353243                       # number of instructions that are conditional controls
system.cpu.num_int_insts                    403870578                       # number of integer instructions
system.cpu.num_fp_insts                          1943                       # number of float instructions
system.cpu.num_vec_insts                            0                       # number of vector instructions
system.cpu.num_int_register_reads           905631451                       # number of times the integer registers were read
system.cpu.num_int_register_writes          351334395                       # number of times the integer registers were written
system.cpu.num_fp_register_reads                 3767                       # number of times the floating registers were read
system.cpu.num_fp_register_writes                1480                       # number of times the floating registers were written
system.cpu.num_vec_register_reads                   0                       # number of times the vector registers were read
system.cpu.num_vec_register_writes                  0                       # number of times the vector registers were written
system.cpu.num_cc_register_reads            149131738                       # number of times the CC registers were read
system.cpu.num_cc_register_writes           139496765                       # number of times the CC registers were written
system.cpu.num_mem_refs                     149949261                       # number of memory refs
system.cpu.num_load_insts                   118033989                       # Number of load instructions
system.cpu.num_store_insts                   31915272                       # Number of store instructions
system.cpu.num_idle_cycles                          0                       # Number of idle cycles
system.cpu.num_busy_cycles                 1067133568                       # Number of busy cycles
system.cpu.not_idle_fraction                        1                       # Percentage of non-idle cycles
system.cpu.idle_fraction                            0                       # Percentage of idle cycles
system.cpu.Branches                          30316574                       # Number of branches fetched
system.cpu.op_class::No_OpClass                744058      0.18%      0.18% # Class of executed instruction
system.cpu.op_class::IntAlu                 251172917     61.81%     62.00% # Class of executed instruction
system.cpu.op_class::IntMult                        4      0.00%     62.00% # Class of executed instruction
system.cpu.op_class::IntDiv                   4475842      1.10%     63.10% # Class of executed instruction
system.cpu.op_class::FloatAdd                      10      0.00%     63.10% # Class of executed instruction
system.cpu.op_class::FloatCmp                       0      0.00%     63.10% # Class of executed instruction
system.cpu.op_class::FloatCvt                       0      0.00%     63.10% # Class of executed instruction
system.cpu.op_class::FloatMult                      0      0.00%     63.10% # Class of executed instruction
system.cpu.op_class::FloatMultAcc                   0      0.00%     63.10% # Class of executed instruction
system.cpu.op_class::FloatDiv                       0      0.00%     63.10% # Class of executed instruction
system.cpu.op_class::FloatMisc                      0      0.00%     63.10% # Class of executed instruction
system.cpu.op_class::FloatSqrt                      0      0.00%     63.10% # Class of executed instruction
system.cpu.op_class::SimdAdd                      374      0.00%     63.10% # Class of executed instruction
system.cpu.op_class::SimdAddAcc                     0      0.00%     63.10% # Class of executed instruction
system.cpu.op_class::SimdAlu                       68      0.00%     63.10% # Class of executed instruction
system.cpu.op_class::SimdCmp                        0      0.00%     63.10% # Class of executed instruction
system.cpu.op_class::SimdCvt                      108      0.00%     63.10% # Class of executed instruction
system.cpu.op_class::SimdMisc                     214      0.00%     63.10% # Class of executed instruction
system.cpu.op_class::SimdMult                       0      0.00%     63.10% # Class of executed instruction
system.cpu.op_class::SimdMultAcc                    0      0.00%     63.10% # Class of executed instruction
system.cpu.op_class::SimdShift                    186      0.00%     63.10% # Class of executed instruction
system.cpu.op_class::SimdShiftAcc                   0      0.00%     63.10% # Class of executed instruction
system.cpu.op_class::SimdSqrt                       0      0.00%     63.10% # Class of executed instruction
system.cpu.op_class::SimdFloatAdd                   0      0.00%     63.10% # Class of executed instruction
system.cpu.op_class::SimdFloatAlu                   0      0.00%     63.10% # Class of executed instruction
system.cpu.op_class::SimdFloatCmp                   0      0.00%     63.10% # Class of executed instruction
system.cpu.op_class::SimdFloatCvt                   0      0.00%     63.10% # Class of executed instruction
system.cpu.op_class::SimdFloatDiv                   0      0.00%     63.10% # Class of executed instruction
system.cpu.op_class::SimdFloatMisc                  0      0.00%     63.10% # Class of executed instruction
system.cpu.op_class::SimdFloatMult                  0      0.00%     63.10% # Class of executed instruction
system.cpu.op_class::SimdFloatMultAcc               0      0.00%     63.10% # Class of executed instruction
system.cpu.op_class::SimdFloatSqrt                  0      0.00%     63.10% # Class of executed instruction
system.cpu.op_class::MemRead                118033933     29.05%     92.15% # Class of executed instruction
system.cpu.op_class::MemWrite                31914857      7.85%    100.00% # Class of executed instruction
system.cpu.op_class::FloatMemRead                  56      0.00%    100.00% # Class of executed instruction
system.cpu.op_class::FloatMemWrite                415      0.00%    100.00% # Class of executed instruction
system.cpu.op_class::IprAccess                      0      0.00%    100.00% # Class of executed instruction
system.cpu.op_class::InstPrefetch                   0      0.00%    100.00% # Class of executed instruction
system.cpu.op_class::total                  406343042                       # Class of executed instruction
system.cpu.dcache.tags.pwrStateResidencyTicks::UNDEFINED 533566784000                       # Cumulative time (in ticks) in various power states
system.cpu.dcache.tags.tagsinuse           511.629361                       # Cycle average of tags in use
system.cpu.dcache.tags.total_refs           149949264                       # Total number of references to valid blocks.
system.cpu.dcache.tags.sampled_refs            352021                       # Sample count of references to valid blocks.
system.cpu.dcache.tags.avg_refs            425.966814                       # Average number of references to valid blocks.
system.cpu.dcache.tags.warmup_cycle            759000                       # Cycle when the warmup percentage was hit.
system.cpu.dcache.tags.occ_blocks::cpu.data   511.629361                       # Average occupied blocks per requestor
system.cpu.dcache.tags.occ_percent::cpu.data     0.999276                       # Average percentage of cache occupancy
system.cpu.dcache.tags.occ_percent::total     0.999276                       # Average percentage of cache occupancy
system.cpu.dcache.tags.occ_task_id_blocks::1024          512                       # Occupied blocks per task id
system.cpu.dcache.tags.age_task_id_blocks_1024::0           11                       # Occupied blocks per task id
system.cpu.dcache.tags.age_task_id_blocks_1024::1           17                       # Occupied blocks per task id
system.cpu.dcache.tags.age_task_id_blocks_1024::2           57                       # Occupied blocks per task id
system.cpu.dcache.tags.age_task_id_blocks_1024::3          427                       # Occupied blocks per task id
system.cpu.dcache.tags.occ_task_id_percent::1024            1                       # Percentage of cache occupancy per task id
system.cpu.dcache.tags.tag_accesses         300250549                       # Number of tag accesses
system.cpu.dcache.tags.data_accesses        300250549                       # Number of data accesses
system.cpu.dcache.pwrStateResidencyTicks::UNDEFINED 533566784000                       # Cumulative time (in ticks) in various power states
system.cpu.dcache.ReadReq_hits::cpu.data    117715220                       # number of ReadReq hits
system.cpu.dcache.ReadReq_hits::total       117715220                       # number of ReadReq hits
system.cpu.dcache.WriteReq_hits::cpu.data     31778183                       # number of WriteReq hits
system.cpu.dcache.WriteReq_hits::total       31778183                       # number of WriteReq hits
system.cpu.dcache.demand_hits::cpu.data     149493403                       # number of demand (read+write) hits
system.cpu.dcache.demand_hits::total        149493403                       # number of demand (read+write) hits
system.cpu.dcache.overall_hits::cpu.data    149493403                       # number of overall hits
system.cpu.dcache.overall_hits::total       149493403                       # number of overall hits
system.cpu.dcache.ReadReq_misses::cpu.data       318772                       # number of ReadReq misses
system.cpu.dcache.ReadReq_misses::total        318772                       # number of ReadReq misses
system.cpu.dcache.WriteReq_misses::cpu.data       137089                       # number of WriteReq misses
system.cpu.dcache.WriteReq_misses::total       137089                       # number of WriteReq misses
system.cpu.dcache.demand_misses::cpu.data       455861                       # number of demand (read+write) misses
system.cpu.dcache.demand_misses::total         455861                       # number of demand (read+write) misses
system.cpu.dcache.overall_misses::cpu.data       455861                       # number of overall misses
system.cpu.dcache.overall_misses::total        455861                       # number of overall misses
system.cpu.dcache.ReadReq_miss_latency::cpu.data  40567597000                       # number of ReadReq miss cycles
system.cpu.dcache.ReadReq_miss_latency::total  40567597000                       # number of ReadReq miss cycles
system.cpu.dcache.WriteReq_miss_latency::cpu.data   8214793000                       # number of WriteReq miss cycles
system.cpu.dcache.WriteReq_miss_latency::total   8214793000                       # number of WriteReq miss cycles
system.cpu.dcache.demand_miss_latency::cpu.data  48782390000                       # number of demand (read+write) miss cycles
system.cpu.dcache.demand_miss_latency::total  48782390000                       # number of demand (read+write) miss cycles
system.cpu.dcache.overall_miss_latency::cpu.data  48782390000                       # number of overall miss cycles
system.cpu.dcache.overall_miss_latency::total  48782390000                       # number of overall miss cycles
system.cpu.dcache.ReadReq_accesses::cpu.data    118033992                       # number of ReadReq accesses(hits+misses)
system.cpu.dcache.ReadReq_accesses::total    118033992                       # number of ReadReq accesses(hits+misses)
system.cpu.dcache.WriteReq_accesses::cpu.data     31915272                       # number of WriteReq accesses(hits+misses)
system.cpu.dcache.WriteReq_accesses::total     31915272                       # number of WriteReq accesses(hits+misses)
system.cpu.dcache.demand_accesses::cpu.data    149949264                       # number of demand (read+write) accesses
system.cpu.dcache.demand_accesses::total    149949264                       # number of demand (read+write) accesses
system.cpu.dcache.overall_accesses::cpu.data    149949264                       # number of overall (read+write) accesses
system.cpu.dcache.overall_accesses::total    149949264                       # number of overall (read+write) accesses
system.cpu.dcache.ReadReq_miss_rate::cpu.data     0.002701                       # miss rate for ReadReq accesses
system.cpu.dcache.ReadReq_miss_rate::total     0.002701                       # miss rate for ReadReq accesses
system.cpu.dcache.WriteReq_miss_rate::cpu.data     0.004295                       # miss rate for WriteReq accesses
system.cpu.dcache.WriteReq_miss_rate::total     0.004295                       # miss rate for WriteReq accesses
system.cpu.dcache.demand_miss_rate::cpu.data     0.003040                       # miss rate for demand accesses
system.cpu.dcache.demand_miss_rate::total     0.003040                       # miss rate for demand accesses
system.cpu.dcache.overall_miss_rate::cpu.data     0.003040                       # miss rate for overall accesses
system.cpu.dcache.overall_miss_rate::total     0.003040                       # miss rate for overall accesses
system.cpu.dcache.ReadReq_avg_miss_latency::cpu.data 127262.108968                       # average ReadReq miss latency
system.cpu.dcache.ReadReq_avg_miss_latency::total 127262.108968                       # average ReadReq miss latency
system.cpu.dcache.WriteReq_avg_miss_latency::cpu.data 59923.064578                       # average WriteReq miss latency
system.cpu.dcache.WriteReq_avg_miss_latency::total 59923.064578                       # average WriteReq miss latency
system.cpu.dcache.demand_avg_miss_latency::cpu.data 107011.545186                       # average overall miss latency
system.cpu.dcache.demand_avg_miss_latency::total 107011.545186                       # average overall miss latency
system.cpu.dcache.overall_avg_miss_latency::cpu.data 107011.545186                       # average overall miss latency
system.cpu.dcache.overall_avg_miss_latency::total 107011.545186                       # average overall miss latency
system.cpu.dcache.blocked_cycles::no_mshrs            0                       # number of cycles access was blocked
system.cpu.dcache.blocked_cycles::no_targets            0                       # number of cycles access was blocked
system.cpu.dcache.blocked::no_mshrs                 0                       # number of cycles access was blocked
system.cpu.dcache.blocked::no_targets               0                       # number of cycles access was blocked
system.cpu.dcache.avg_blocked_cycles::no_mshrs          nan                       # average number of cycles each access was blocked
system.cpu.dcache.avg_blocked_cycles::no_targets          nan                       # average number of cycles each access was blocked
system.cpu.dcache.writebacks::writebacks       321030                       # number of writebacks
system.cpu.dcache.writebacks::total            321030                       # number of writebacks
system.cpu.dcache.ReadReq_mshr_misses::cpu.data       318772                       # number of ReadReq MSHR misses
system.cpu.dcache.ReadReq_mshr_misses::total       318772                       # number of ReadReq MSHR misses
system.cpu.dcache.WriteReq_mshr_misses::cpu.data       137089                       # number of WriteReq MSHR misses
system.cpu.dcache.WriteReq_mshr_misses::total       137089                       # number of WriteReq MSHR misses
system.cpu.dcache.demand_mshr_misses::cpu.data       455861                       # number of demand (read+write) MSHR misses
system.cpu.dcache.demand_mshr_misses::total       455861                       # number of demand (read+write) MSHR misses
system.cpu.dcache.overall_mshr_misses::cpu.data       455861                       # number of overall MSHR misses
system.cpu.dcache.overall_mshr_misses::total       455861                       # number of overall MSHR misses
system.cpu.dcache.ReadReq_mshr_miss_latency::cpu.data  40248825000                       # number of ReadReq MSHR miss cycles
system.cpu.dcache.ReadReq_mshr_miss_latency::total  40248825000                       # number of ReadReq MSHR miss cycles
system.cpu.dcache.WriteReq_mshr_miss_latency::cpu.data   8077704000                       # number of WriteReq MSHR miss cycles
system.cpu.dcache.WriteReq_mshr_miss_latency::total   8077704000                       # number of WriteReq MSHR miss cycles
system.cpu.dcache.demand_mshr_miss_latency::cpu.data  48326529000                       # number of demand (read+write) MSHR miss cycles
system.cpu.dcache.demand_mshr_miss_latency::total  48326529000                       # number of demand (read+write) MSHR miss cycles
system.cpu.dcache.overall_mshr_miss_latency::cpu.data  48326529000                       # number of overall MSHR miss cycles
system.cpu.dcache.overall_mshr_miss_latency::total  48326529000                       # number of overall MSHR miss cycles
system.cpu.dcache.ReadReq_mshr_miss_rate::cpu.data     0.002701                       # mshr miss rate for ReadReq accesses
system.cpu.dcache.ReadReq_mshr_miss_rate::total     0.002701                       # mshr miss rate for ReadReq accesses
system.cpu.dcache.WriteReq_mshr_miss_rate::cpu.data     0.004295                       # mshr miss rate for WriteReq accesses
system.cpu.dcache.WriteReq_mshr_miss_rate::total     0.004295                       # mshr miss rate for WriteReq accesses
system.cpu.dcache.demand_mshr_miss_rate::cpu.data     0.003040                       # mshr miss rate for demand accesses
system.cpu.dcache.demand_mshr_miss_rate::total     0.003040                       # mshr miss rate for demand accesses
system.cpu.dcache.overall_mshr_miss_rate::cpu.data     0.003040                       # mshr miss rate for overall accesses
system.cpu.dcache.overall_mshr_miss_rate::total     0.003040                       # mshr miss rate for overall accesses
system.cpu.dcache.ReadReq_avg_mshr_miss_latency::cpu.data 126262.108968                       # average ReadReq mshr miss latency
system.cpu.dcache.ReadReq_avg_mshr_miss_latency::total 126262.108968                       # average ReadReq mshr miss latency
system.cpu.dcache.WriteReq_avg_mshr_miss_latency::cpu.data 58923.064578                       # average WriteReq mshr miss latency
system.cpu.dcache.WriteReq_avg_mshr_miss_latency::total 58923.064578                       # average WriteReq mshr miss latency
system.cpu.dcache.demand_avg_mshr_miss_latency::cpu.data 106011.545186                       # average overall mshr miss latency
system.cpu.dcache.demand_avg_mshr_miss_latency::total 106011.545186                       # average overall mshr miss latency
system.cpu.dcache.overall_avg_mshr_miss_latency::cpu.data 106011.545186                       # average overall mshr miss latency
system.cpu.dcache.overall_avg_mshr_miss_latency::total 106011.545186                       # average overall mshr miss latency
system.cpu.dcache.replacements                 351509                       # number of replacements
system.cpu.dtb_walker_cache.tags.pwrStateResidencyTicks::UNDEFINED 533566784000                       # Cumulative time (in ticks) in various power states
system.cpu.dtb_walker_cache.tags.tagsinuse            0                       # Cycle average of tags in use
system.cpu.dtb_walker_cache.tags.total_refs            0                       # Total number of references to valid blocks.
system.cpu.dtb_walker_cache.tags.sampled_refs            0                       # Sample count of references to valid blocks.
system.cpu.dtb_walker_cache.tags.avg_refs          nan                       # Average number of references to valid blocks.
system.cpu.dtb_walker_cache.tags.warmup_cycle            0                       # Cycle when the warmup percentage was hit.
system.cpu.dtb_walker_cache.tags.tag_accesses            0                       # Number of tag accesses
system.cpu.dtb_walker_cache.tags.data_accesses            0                       # Number of data accesses
system.cpu.dtb_walker_cache.pwrStateResidencyTicks::UNDEFINED 533566784000                       # Cumulative time (in ticks) in various power states
system.cpu.dtb_walker_cache.blocked_cycles::no_mshrs            0                       # number of cycles access was blocked
system.cpu.dtb_walker_cache.blocked_cycles::no_targets            0                       # number of cycles access was blocked
system.cpu.dtb_walker_cache.blocked::no_mshrs            0                       # number of cycles access was blocked
system.cpu.dtb_walker_cache.blocked::no_targets            0                       # number of cycles access was blocked
system.cpu.dtb_walker_cache.avg_blocked_cycles::no_mshrs          nan                       # average number of cycles each access was blocked
system.cpu.dtb_walker_cache.avg_blocked_cycles::no_targets          nan                       # average number of cycles each access was blocked
system.cpu.dtb_walker_cache.replacements            0                       # number of replacements
system.cpu.icache.tags.pwrStateResidencyTicks::UNDEFINED 533566784000                       # Cumulative time (in ticks) in various power states
system.cpu.icache.tags.tagsinuse           279.467425                       # Cycle average of tags in use
system.cpu.icache.tags.total_refs           335229882                       # Total number of references to valid blocks.
system.cpu.icache.tags.sampled_refs               353                       # Sample count of references to valid blocks.
system.cpu.icache.tags.avg_refs          949659.722380                       # Average number of references to valid blocks.
system.cpu.icache.tags.warmup_cycle            439000                       # Cycle when the warmup percentage was hit.
system.cpu.icache.tags.occ_blocks::cpu.inst   279.467425                       # Average occupied blocks per requestor
system.cpu.icache.tags.occ_percent::cpu.inst     0.545835                       # Average percentage of cache occupancy
system.cpu.icache.tags.occ_percent::total     0.545835                       # Average percentage of cache occupancy
system.cpu.icache.tags.occ_task_id_blocks::1024          308                       # Occupied blocks per task id
system.cpu.icache.tags.age_task_id_blocks_1024::0           19                       # Occupied blocks per task id
system.cpu.icache.tags.age_task_id_blocks_1024::1           19                       # Occupied blocks per task id
system.cpu.icache.tags.age_task_id_blocks_1024::4          270                       # Occupied blocks per task id
system.cpu.icache.tags.occ_task_id_percent::1024     0.601562                       # Percentage of cache occupancy per task id
system.cpu.icache.tags.tag_accesses         670460117                       # Number of tag accesses
system.cpu.icache.tags.data_accesses        670460117                       # Number of data accesses
system.cpu.icache.pwrStateResidencyTicks::UNDEFINED 533566784000                       # Cumulative time (in ticks) in various power states
system.cpu.icache.ReadReq_hits::cpu.inst    335229529                       # number of ReadReq hits
system.cpu.icache.ReadReq_hits::total       335229529                       # number of ReadReq hits
system.cpu.icache.demand_hits::cpu.inst     335229529                       # number of demand (read+write) hits
system.cpu.icache.demand_hits::total        335229529                       # number of demand (read+write) hits
system.cpu.icache.overall_hits::cpu.inst    335229529                       # number of overall hits
system.cpu.icache.overall_hits::total       335229529                       # number of overall hits
system.cpu.icache.ReadReq_misses::cpu.inst          353                       # number of ReadReq misses
system.cpu.icache.ReadReq_misses::total           353                       # number of ReadReq misses
system.cpu.icache.demand_misses::cpu.inst          353                       # number of demand (read+write) misses
system.cpu.icache.demand_misses::total            353                       # number of demand (read+write) misses
system.cpu.icache.overall_misses::cpu.inst          353                       # number of overall misses
system.cpu.icache.overall_misses::total           353                       # number of overall misses
system.cpu.icache.ReadReq_miss_latency::cpu.inst     61465000                       # number of ReadReq miss cycles
system.cpu.icache.ReadReq_miss_latency::total     61465000                       # number of ReadReq miss cycles
system.cpu.icache.demand_miss_latency::cpu.inst     61465000                       # number of demand (read+write) miss cycles
system.cpu.icache.demand_miss_latency::total     61465000                       # number of demand (read+write) miss cycles
system.cpu.icache.overall_miss_latency::cpu.inst     61465000                       # number of overall miss cycles
system.cpu.icache.overall_miss_latency::total     61465000                       # number of overall miss cycles
system.cpu.icache.ReadReq_accesses::cpu.inst    335229882                       # number of ReadReq accesses(hits+misses)
system.cpu.icache.ReadReq_accesses::total    335229882                       # number of ReadReq accesses(hits+misses)
system.cpu.icache.demand_accesses::cpu.inst    335229882                       # number of demand (read+write) accesses
system.cpu.icache.demand_accesses::total    335229882                       # number of demand (read+write) accesses
system.cpu.icache.overall_accesses::cpu.inst    335229882                       # number of overall (read+write) accesses
system.cpu.icache.overall_accesses::total    335229882                       # number of overall (read+write) accesses
system.cpu.icache.ReadReq_miss_rate::cpu.inst     0.000001                       # miss rate for ReadReq accesses
system.cpu.icache.ReadReq_miss_rate::total     0.000001                       # miss rate for ReadReq accesses
system.cpu.icache.demand_miss_rate::cpu.inst     0.000001                       # miss rate for demand accesses
system.cpu.icache.demand_miss_rate::total     0.000001                       # miss rate for demand accesses
system.cpu.icache.overall_miss_rate::cpu.inst     0.000001                       # miss rate for overall accesses
system.cpu.icache.overall_miss_rate::total     0.000001                       # miss rate for overall accesses
system.cpu.icache.ReadReq_avg_miss_latency::cpu.inst 174121.813031                       # average ReadReq miss latency
system.cpu.icache.ReadReq_avg_miss_latency::total 174121.813031                       # average ReadReq miss latency
system.cpu.icache.demand_avg_miss_latency::cpu.inst 174121.813031                       # average overall miss latency
system.cpu.icache.demand_avg_miss_latency::total 174121.813031                       # average overall miss latency
system.cpu.icache.overall_avg_miss_latency::cpu.inst 174121.813031                       # average overall miss latency
system.cpu.icache.overall_avg_miss_latency::total 174121.813031                       # average overall miss latency
system.cpu.icache.blocked_cycles::no_mshrs            0                       # number of cycles access was blocked
system.cpu.icache.blocked_cycles::no_targets            0                       # number of cycles access was blocked
system.cpu.icache.blocked::no_mshrs                 0                       # number of cycles access was blocked
system.cpu.icache.blocked::no_targets               0                       # number of cycles access was blocked
system.cpu.icache.avg_blocked_cycles::no_mshrs          nan                       # average number of cycles each access was blocked
system.cpu.icache.avg_blocked_cycles::no_targets          nan                       # average number of cycles each access was blocked
system.cpu.icache.writebacks::writebacks           45                       # number of writebacks
system.cpu.icache.writebacks::total                45                       # number of writebacks
system.cpu.icache.ReadReq_mshr_misses::cpu.inst          353                       # number of ReadReq MSHR misses
system.cpu.icache.ReadReq_mshr_misses::total          353                       # number of ReadReq MSHR misses
system.cpu.icache.demand_mshr_misses::cpu.inst          353                       # number of demand (read+write) MSHR misses
system.cpu.icache.demand_mshr_misses::total          353                       # number of demand (read+write) MSHR misses
system.cpu.icache.overall_mshr_misses::cpu.inst          353                       # number of overall MSHR misses
system.cpu.icache.overall_mshr_misses::total          353                       # number of overall MSHR misses
system.cpu.icache.ReadReq_mshr_miss_latency::cpu.inst     61112000                       # number of ReadReq MSHR miss cycles
system.cpu.icache.ReadReq_mshr_miss_latency::total     61112000                       # number of ReadReq MSHR miss cycles
system.cpu.icache.demand_mshr_miss_latency::cpu.inst     61112000                       # number of demand (read+write) MSHR miss cycles
system.cpu.icache.demand_mshr_miss_latency::total     61112000                       # number of demand (read+write) MSHR miss cycles
system.cpu.icache.overall_mshr_miss_latency::cpu.inst     61112000                       # number of overall MSHR miss cycles
system.cpu.icache.overall_mshr_miss_latency::total     61112000                       # number of overall MSHR miss cycles
system.cpu.icache.ReadReq_mshr_miss_rate::cpu.inst     0.000001                       # mshr miss rate for ReadReq accesses
system.cpu.icache.ReadReq_mshr_miss_rate::total     0.000001                       # mshr miss rate for ReadReq accesses
system.cpu.icache.demand_mshr_miss_rate::cpu.inst     0.000001                       # mshr miss rate for demand accesses
system.cpu.icache.demand_mshr_miss_rate::total     0.000001                       # mshr miss rate for demand accesses
system.cpu.icache.overall_mshr_miss_rate::cpu.inst     0.000001                       # mshr miss rate for overall accesses
system.cpu.icache.overall_mshr_miss_rate::total     0.000001                       # mshr miss rate for overall accesses
system.cpu.icache.ReadReq_avg_mshr_miss_latency::cpu.inst 173121.813031                       # average ReadReq mshr miss latency
system.cpu.icache.ReadReq_avg_mshr_miss_latency::total 173121.813031                       # average ReadReq mshr miss latency
system.cpu.icache.demand_avg_mshr_miss_latency::cpu.inst 173121.813031                       # average overall mshr miss latency
system.cpu.icache.demand_avg_mshr_miss_latency::total 173121.813031                       # average overall mshr miss latency
system.cpu.icache.overall_avg_mshr_miss_latency::cpu.inst 173121.813031                       # average overall mshr miss latency
system.cpu.icache.overall_avg_mshr_miss_latency::total 173121.813031                       # average overall mshr miss latency
system.cpu.icache.replacements                     45                       # number of replacements
system.cpu.itb_walker_cache.tags.pwrStateResidencyTicks::UNDEFINED 533566784000                       # Cumulative time (in ticks) in various power states
system.cpu.itb_walker_cache.tags.tagsinuse            0                       # Cycle average of tags in use
system.cpu.itb_walker_cache.tags.total_refs            0                       # Total number of references to valid blocks.
system.cpu.itb_walker_cache.tags.sampled_refs            0                       # Sample count of references to valid blocks.
system.cpu.itb_walker_cache.tags.avg_refs          nan                       # Average number of references to valid blocks.
system.cpu.itb_walker_cache.tags.warmup_cycle            0                       # Cycle when the warmup percentage was hit.
system.cpu.itb_walker_cache.tags.tag_accesses            0                       # Number of tag accesses
system.cpu.itb_walker_cache.tags.data_accesses            0                       # Number of data accesses
system.cpu.itb_walker_cache.pwrStateResidencyTicks::UNDEFINED 533566784000                       # Cumulative time (in ticks) in various power states
system.cpu.itb_walker_cache.blocked_cycles::no_mshrs            0                       # number of cycles access was blocked
system.cpu.itb_walker_cache.blocked_cycles::no_targets            0                       # number of cycles access was blocked
system.cpu.itb_walker_cache.blocked::no_mshrs            0                       # number of cycles access was blocked
system.cpu.itb_walker_cache.blocked::no_targets            0                       # number of cycles access was blocked
system.cpu.itb_walker_cache.avg_blocked_cycles::no_mshrs          nan                       # average number of cycles each access was blocked
system.cpu.itb_walker_cache.avg_blocked_cycles::no_targets          nan                       # average number of cycles each access was blocked
system.cpu.itb_walker_cache.replacements            0                       # number of replacements
system.l2.tags.pwrStateResidencyTicks::UNDEFINED 533566784000                       # Cumulative time (in ticks) in various power states
system.l2.tags.tagsinuse                  2043.021846                       # Cycle average of tags in use
system.l2.tags.total_refs                      807768                       # Total number of references to valid blocks.
system.l2.tags.sampled_refs                    248815                       # Sample count of references to valid blocks.
system.l2.tags.avg_refs                      3.246460                       # Average number of references to valid blocks.
system.l2.tags.warmup_cycle                    428500                       # Cycle when the warmup percentage was hit.
system.l2.tags.occ_blocks::writebacks        1.038651                       # Average occupied blocks per requestor
system.l2.tags.occ_blocks::cpu.inst          1.902596                       # Average occupied blocks per requestor
system.l2.tags.occ_blocks::cpu.data       2040.080599                       # Average occupied blocks per requestor
system.l2.tags.occ_percent::writebacks       0.000507                       # Average percentage of cache occupancy
system.l2.tags.occ_percent::cpu.inst         0.000929                       # Average percentage of cache occupancy
system.l2.tags.occ_percent::cpu.data         0.996133                       # Average percentage of cache occupancy
system.l2.tags.occ_percent::total            0.997569                       # Average percentage of cache occupancy
system.l2.tags.occ_task_id_blocks::1024          2048                       # Occupied blocks per task id
system.l2.tags.age_task_id_blocks_1024::0           36                       # Occupied blocks per task id
system.l2.tags.age_task_id_blocks_1024::1           39                       # Occupied blocks per task id
system.l2.tags.age_task_id_blocks_1024::3           53                       # Occupied blocks per task id
system.l2.tags.age_task_id_blocks_1024::4         1920                       # Occupied blocks per task id
system.l2.tags.occ_task_id_percent::1024            1                       # Percentage of cache occupancy per task id
system.l2.tags.tag_accesses                   6710959                       # Number of tag accesses
system.l2.tags.data_accesses                  6710959                       # Number of data accesses
system.l2.pwrStateResidencyTicks::UNDEFINED 533566784000                       # Cumulative time (in ticks) in various power states
system.l2.WritebackDirty_hits::writebacks       321030                       # number of WritebackDirty hits
system.l2.WritebackDirty_hits::total           321030                       # number of WritebackDirty hits
system.l2.WritebackClean_hits::writebacks           45                       # number of WritebackClean hits
system.l2.WritebackClean_hits::total               45                       # number of WritebackClean hits
system.l2.UpgradeReq_hits::cpu.data            103840                       # number of UpgradeReq hits
system.l2.UpgradeReq_hits::total               103840                       # number of UpgradeReq hits
system.l2.ReadExReq_hits::cpu.data               1436                       # number of ReadExReq hits
system.l2.ReadExReq_hits::total                  1436                       # number of ReadExReq hits
system.l2.ReadSharedReq_hits::cpu.data         102182                       # number of ReadSharedReq hits
system.l2.ReadSharedReq_hits::total            102182                       # number of ReadSharedReq hits
system.l2.demand_hits::cpu.data                103618                       # number of demand (read+write) hits
system.l2.demand_hits::total                   103618                       # number of demand (read+write) hits
system.l2.overall_hits::cpu.data               103618                       # number of overall hits
system.l2.overall_hits::total                  103618                       # number of overall hits
system.l2.ReadExReq_misses::cpu.data            31813                       # number of ReadExReq misses
system.l2.ReadExReq_misses::total               31813                       # number of ReadExReq misses
system.l2.ReadCleanReq_misses::cpu.inst           353                       # number of ReadCleanReq misses
system.l2.ReadCleanReq_misses::total              353                       # number of ReadCleanReq misses
system.l2.ReadSharedReq_misses::cpu.data       216590                       # number of ReadSharedReq misses
system.l2.ReadSharedReq_misses::total          216590                       # number of ReadSharedReq misses
system.l2.demand_misses::cpu.inst                 353                       # number of demand (read+write) misses
system.l2.demand_misses::cpu.data              248403                       # number of demand (read+write) misses
system.l2.demand_misses::total                 248756                       # number of demand (read+write) misses
system.l2.overall_misses::cpu.inst                353                       # number of overall misses
system.l2.overall_misses::cpu.data             248403                       # number of overall misses
system.l2.overall_misses::total                248756                       # number of overall misses
system.l2.ReadExReq_miss_latency::cpu.data   6766671500                       # number of ReadExReq miss cycles
system.l2.ReadExReq_miss_latency::total    6766671500                       # number of ReadExReq miss cycles
system.l2.ReadCleanReq_miss_latency::cpu.inst     60580500                       # number of ReadCleanReq miss cycles
system.l2.ReadCleanReq_miss_latency::total     60580500                       # number of ReadCleanReq miss cycles
system.l2.ReadSharedReq_miss_latency::cpu.data  38697755500                       # number of ReadSharedReq miss cycles
system.l2.ReadSharedReq_miss_latency::total  38697755500                       # number of ReadSharedReq miss cycles
system.l2.demand_miss_latency::cpu.inst      60580500                       # number of demand (read+write) miss cycles
system.l2.demand_miss_latency::cpu.data   45464427000                       # number of demand (read+write) miss cycles
system.l2.demand_miss_latency::total      45525007500                       # number of demand (read+write) miss cycles
system.l2.overall_miss_latency::cpu.inst     60580500                       # number of overall miss cycles
system.l2.overall_miss_latency::cpu.data  45464427000                       # number of overall miss cycles
system.l2.overall_miss_latency::total     45525007500                       # number of overall miss cycles
system.l2.WritebackDirty_accesses::writebacks       321030                       # number of WritebackDirty accesses(hits+misses)
system.l2.WritebackDirty_accesses::total       321030                       # number of WritebackDirty accesses(hits+misses)
system.l2.WritebackClean_accesses::writebacks           45                       # number of WritebackClean accesses(hits+misses)
system.l2.WritebackClean_accesses::total           45                       # number of WritebackClean accesses(hits+misses)
system.l2.UpgradeReq_accesses::cpu.data        103840                       # number of UpgradeReq accesses(hits+misses)
system.l2.UpgradeReq_accesses::total           103840                       # number of UpgradeReq accesses(hits+misses)
system.l2.ReadExReq_accesses::cpu.data          33249                       # number of ReadExReq accesses(hits+misses)
system.l2.ReadExReq_accesses::total             33249                       # number of ReadExReq accesses(hits+misses)
system.l2.ReadCleanReq_accesses::cpu.inst          353                       # number of ReadCleanReq accesses(hits+misses)
system.l2.ReadCleanReq_accesses::total            353                       # number of ReadCleanReq accesses(hits+misses)
system.l2.ReadSharedReq_accesses::cpu.data       318772                       # number of ReadSharedReq accesses(hits+misses)
system.l2.ReadSharedReq_accesses::total        318772                       # number of ReadSharedReq accesses(hits+misses)
system.l2.demand_accesses::cpu.inst               353                       # number of demand (read+write) accesses
system.l2.demand_accesses::cpu.data            352021                       # number of demand (read+write) accesses
system.l2.demand_accesses::total               352374                       # number of demand (read+write) accesses
system.l2.overall_accesses::cpu.inst              353                       # number of overall (read+write) accesses
system.l2.overall_accesses::cpu.data           352021                       # number of overall (read+write) accesses
system.l2.overall_accesses::total              352374                       # number of overall (read+write) accesses
system.l2.ReadExReq_miss_rate::cpu.data      0.956811                       # miss rate for ReadExReq accesses
system.l2.ReadExReq_miss_rate::total         0.956811                       # miss rate for ReadExReq accesses
system.l2.ReadCleanReq_miss_rate::cpu.inst            1                       # miss rate for ReadCleanReq accesses
system.l2.ReadCleanReq_miss_rate::total             1                       # miss rate for ReadCleanReq accesses
system.l2.ReadSharedReq_miss_rate::cpu.data     0.679451                       # miss rate for ReadSharedReq accesses
system.l2.ReadSharedReq_miss_rate::total     0.679451                       # miss rate for ReadSharedReq accesses
system.l2.demand_miss_rate::cpu.inst                1                       # miss rate for demand accesses
system.l2.demand_miss_rate::cpu.data         0.705648                       # miss rate for demand accesses
system.l2.demand_miss_rate::total            0.705943                       # miss rate for demand accesses
system.l2.overall_miss_rate::cpu.inst               1                       # miss rate for overall accesses
system.l2.overall_miss_rate::cpu.data        0.705648                       # miss rate for overall accesses
system.l2.overall_miss_rate::total           0.705943                       # miss rate for overall accesses
system.l2.ReadExReq_avg_miss_latency::cpu.data 212701.458523                       # average ReadExReq miss latency
system.l2.ReadExReq_avg_miss_latency::total 212701.458523                       # average ReadExReq miss latency
system.l2.ReadCleanReq_avg_miss_latency::cpu.inst 171616.147309                       # average ReadCleanReq miss latency
system.l2.ReadCleanReq_avg_miss_latency::total 171616.147309                       # average ReadCleanReq miss latency
system.l2.ReadSharedReq_avg_miss_latency::cpu.data 178668.246456                       # average ReadSharedReq miss latency
system.l2.ReadSharedReq_avg_miss_latency::total 178668.246456                       # average ReadSharedReq miss latency
system.l2.demand_avg_miss_latency::cpu.inst 171616.147309                       # average overall miss latency
system.l2.demand_avg_miss_latency::cpu.data 183026.883733                       # average overall miss latency
system.l2.demand_avg_miss_latency::total 183010.691199                       # average overall miss latency
system.l2.overall_avg_miss_latency::cpu.inst 171616.147309                       # average overall miss latency
system.l2.overall_avg_miss_latency::cpu.data 183026.883733                       # average overall miss latency
system.l2.overall_avg_miss_latency::total 183010.691199                       # average overall miss latency
system.l2.blocked_cycles::no_mshrs                  0                       # number of cycles access was blocked
system.l2.blocked_cycles::no_targets                0                       # number of cycles access was blocked
system.l2.blocked::no_mshrs                         0                       # number of cycles access was blocked
system.l2.blocked::no_targets                       0                       # number of cycles access was blocked
system.l2.avg_blocked_cycles::no_mshrs            nan                       # average number of cycles each access was blocked
system.l2.avg_blocked_cycles::no_targets          nan                       # average number of cycles each access was blocked
system.l2.writebacks::writebacks               233757                       # number of writebacks
system.l2.writebacks::total                    233757                       # number of writebacks
system.l2.ReadExReq_mshr_misses::cpu.data        31813                       # number of ReadExReq MSHR misses
system.l2.ReadExReq_mshr_misses::total          31813                       # number of ReadExReq MSHR misses
system.l2.ReadCleanReq_mshr_misses::cpu.inst          353                       # number of ReadCleanReq MSHR misses
system.l2.ReadCleanReq_mshr_misses::total          353                       # number of ReadCleanReq MSHR misses
system.l2.ReadSharedReq_mshr_misses::cpu.data       216590                       # number of ReadSharedReq MSHR misses
system.l2.ReadSharedReq_mshr_misses::total       216590                       # number of ReadSharedReq MSHR misses
system.l2.demand_mshr_misses::cpu.inst            353                       # number of demand (read+write) MSHR misses
system.l2.demand_mshr_misses::cpu.data         248403                       # number of demand (read+write) MSHR misses
system.l2.demand_mshr_misses::total            248756                       # number of demand (read+write) MSHR misses
system.l2.overall_mshr_misses::cpu.inst           353                       # number of overall MSHR misses
system.l2.overall_mshr_misses::cpu.data        248403                       # number of overall MSHR misses
system.l2.overall_mshr_misses::total           248756                       # number of overall MSHR misses
system.l2.ReadExReq_mshr_miss_latency::cpu.data   6448541500                       # number of ReadExReq MSHR miss cycles
system.l2.ReadExReq_mshr_miss_latency::total   6448541500                       # number of ReadExReq MSHR miss cycles
system.l2.ReadCleanReq_mshr_miss_latency::cpu.inst     57050500                       # number of ReadCleanReq MSHR miss cycles
system.l2.ReadCleanReq_mshr_miss_latency::total     57050500                       # number of ReadCleanReq MSHR miss cycles
system.l2.ReadSharedReq_mshr_miss_latency::cpu.data  36531855500                       # number of ReadSharedReq MSHR miss cycles
system.l2.ReadSharedReq_mshr_miss_latency::total  36531855500                       # number of ReadSharedReq MSHR miss cycles
system.l2.demand_mshr_miss_latency::cpu.inst     57050500                       # number of demand (read+write) MSHR miss cycles
system.l2.demand_mshr_miss_latency::cpu.data  42980397000                       # number of demand (read+write) MSHR miss cycles
system.l2.demand_mshr_miss_latency::total  43037447500                       # number of demand (read+write) MSHR miss cycles
system.l2.overall_mshr_miss_latency::cpu.inst     57050500                       # number of overall MSHR miss cycles
system.l2.overall_mshr_miss_latency::cpu.data  42980397000                       # number of overall MSHR miss cycles
system.l2.overall_mshr_miss_latency::total  43037447500                       # number of overall MSHR miss cycles
system.l2.ReadExReq_mshr_miss_rate::cpu.data     0.956811                       # mshr miss rate for ReadExReq accesses
system.l2.ReadExReq_mshr_miss_rate::total     0.956811                       # mshr miss rate for ReadExReq accesses
system.l2.ReadCleanReq_mshr_miss_rate::cpu.inst            1                       # mshr miss rate for ReadCleanReq accesses
system.l2.ReadCleanReq_mshr_miss_rate::total            1                       # mshr miss rate for ReadCleanReq accesses
system.l2.ReadSharedReq_mshr_miss_rate::cpu.data     0.679451                       # mshr miss rate for ReadSharedReq accesses
system.l2.ReadSharedReq_mshr_miss_rate::total     0.679451                       # mshr miss rate for ReadSharedReq accesses
system.l2.demand_mshr_miss_rate::cpu.inst            1                       # mshr miss rate for demand accesses
system.l2.demand_mshr_miss_rate::cpu.data     0.705648                       # mshr miss rate for demand accesses
system.l2.demand_mshr_miss_rate::total       0.705943                       # mshr miss rate for demand accesses
system.l2.overall_mshr_miss_rate::cpu.inst            1                       # mshr miss rate for overall accesses
system.l2.overall_mshr_miss_rate::cpu.data     0.705648                       # mshr miss rate for overall accesses
system.l2.overall_mshr_miss_rate::total      0.705943                       # mshr miss rate for overall accesses
system.l2.ReadExReq_avg_mshr_miss_latency::cpu.data 202701.458523                       # average ReadExReq mshr miss latency
system.l2.ReadExReq_avg_mshr_miss_latency::total 202701.458523                       # average ReadExReq mshr miss latency
system.l2.ReadCleanReq_avg_mshr_miss_latency::cpu.inst 161616.147309                       # average ReadCleanReq mshr miss latency
system.l2.ReadCleanReq_avg_mshr_miss_latency::total 161616.147309                       # average ReadCleanReq mshr miss latency
system.l2.ReadSharedReq_avg_mshr_miss_latency::cpu.data 168668.246456                       # average ReadSharedReq mshr miss latency
system.l2.ReadSharedReq_avg_mshr_miss_latency::total 168668.246456                       # average ReadSharedReq mshr miss latency
system.l2.demand_avg_mshr_miss_latency::cpu.inst 161616.147309                       # average overall mshr miss latency
system.l2.demand_avg_mshr_miss_latency::cpu.data 173026.883733                       # average overall mshr miss latency
system.l2.demand_avg_mshr_miss_latency::total 173010.691199                       # average overall mshr miss latency
system.l2.overall_avg_mshr_miss_latency::cpu.inst 161616.147309                       # average overall mshr miss latency
system.l2.overall_avg_mshr_miss_latency::cpu.data 173026.883733                       # average overall mshr miss latency
system.l2.overall_avg_mshr_miss_latency::total 173010.691199                       # average overall mshr miss latency
system.l2.replacements                         246767                       # number of replacements
system.l3.tags.pwrStateResidencyTicks::UNDEFINED 533566784000                       # Cumulative time (in ticks) in various power states
system.l3.tags.tagsinuse                 15909.373059                       # Cycle average of tags in use
system.l3.tags.total_refs                      495194                       # Total number of references to valid blocks.
system.l3.tags.sampled_refs                    117080                       # Sample count of references to valid blocks.
system.l3.tags.avg_refs                      4.229535                       # Average number of references to valid blocks.
system.l3.tags.warmup_cycle                    418000                       # Cycle when the warmup percentage was hit.
system.l3.tags.occ_blocks::writebacks        1.466552                       # Average occupied blocks per requestor
system.l3.tags.occ_blocks::cpu.inst         18.767547                       # Average occupied blocks per requestor
system.l3.tags.occ_blocks::cpu.data      15889.138960                       # Average occupied blocks per requestor
system.l3.tags.occ_percent::writebacks       0.000090                       # Average percentage of cache occupancy
system.l3.tags.occ_percent::cpu.inst         0.001145                       # Average percentage of cache occupancy
system.l3.tags.occ_percent::cpu.data         0.969796                       # Average percentage of cache occupancy
system.l3.tags.occ_percent::total            0.971031                       # Average percentage of cache occupancy
system.l3.tags.occ_task_id_blocks::1024         16384                       # Occupied blocks per task id
system.l3.tags.age_task_id_blocks_1024::0           30                       # Occupied blocks per task id
system.l3.tags.age_task_id_blocks_1024::1           34                       # Occupied blocks per task id
system.l3.tags.age_task_id_blocks_1024::4        16320                       # Occupied blocks per task id
system.l3.tags.occ_task_id_percent::1024            1                       # Percentage of cache occupancy per task id
system.l3.tags.tag_accesses                8113375576                       # Number of tag accesses
system.l3.tags.data_accesses               8113375576                       # Number of data accesses
system.l3.pwrStateResidencyTicks::UNDEFINED 533566784000                       # Cumulative time (in ticks) in various power states
system.l3.WritebackDirty_hits::writebacks       233757                       # number of WritebackDirty hits
system.l3.WritebackDirty_hits::total           233757                       # number of WritebackDirty hits
system.l3.ReadExReq_hits::cpu.data                383                       # number of ReadExReq hits
system.l3.ReadExReq_hits::total                   383                       # number of ReadExReq hits
system.l3.ReadSharedReq_hits::cpu.data         131304                       # number of ReadSharedReq hits
system.l3.ReadSharedReq_hits::total            131304                       # number of ReadSharedReq hits
system.l3.demand_hits::cpu.data                131687                       # number of demand (read+write) hits
system.l3.demand_hits::total                   131687                       # number of demand (read+write) hits
system.l3.overall_hits::cpu.data               131687                       # number of overall hits
system.l3.overall_hits::total                  131687                       # number of overall hits
system.l3.ReadExReq_misses::cpu.data            31430                       # number of ReadExReq misses
system.l3.ReadExReq_misses::total               31430                       # number of ReadExReq misses
system.l3.ReadSharedReq_misses::cpu.inst          353                       # number of ReadSharedReq misses
system.l3.ReadSharedReq_misses::cpu.data        85286                       # number of ReadSharedReq misses
system.l3.ReadSharedReq_misses::total           85639                       # number of ReadSharedReq misses
system.l3.demand_misses::cpu.inst                 353                       # number of demand (read+write) misses
system.l3.demand_misses::cpu.data              116716                       # number of demand (read+write) misses
system.l3.demand_misses::total                 117069                       # number of demand (read+write) misses
system.l3.overall_misses::cpu.inst                353                       # number of overall misses
system.l3.overall_misses::cpu.data             116716                       # number of overall misses
system.l3.overall_misses::total                117069                       # number of overall misses
system.l3.ReadExReq_miss_latency::cpu.data   6094577000                       # number of ReadExReq miss cycles
system.l3.ReadExReq_miss_latency::total    6094577000                       # number of ReadExReq miss cycles
system.l3.ReadSharedReq_miss_latency::cpu.inst     53167500                       # number of ReadSharedReq miss cycles
system.l3.ReadSharedReq_miss_latency::cpu.data  32770673500                       # number of ReadSharedReq miss cycles
system.l3.ReadSharedReq_miss_latency::total  32823841000                       # number of ReadSharedReq miss cycles
system.l3.demand_miss_latency::cpu.inst      53167500                       # number of demand (read+write) miss cycles
system.l3.demand_miss_latency::cpu.data   38865250500                       # number of demand (read+write) miss cycles
system.l3.demand_miss_latency::total      38918418000                       # number of demand (read+write) miss cycles
system.l3.overall_miss_latency::cpu.inst     53167500                       # number of overall miss cycles
system.l3.overall_miss_latency::cpu.data  38865250500                       # number of overall miss cycles
system.l3.overall_miss_latency::total     38918418000                       # number of overall miss cycles
system.l3.WritebackDirty_accesses::writebacks       233757                       # number of WritebackDirty accesses(hits+misses)
system.l3.WritebackDirty_accesses::total       233757                       # number of WritebackDirty accesses(hits+misses)
system.l3.ReadExReq_accesses::cpu.data          31813                       # number of ReadExReq accesses(hits+misses)
system.l3.ReadExReq_accesses::total             31813                       # number of ReadExReq accesses(hits+misses)
system.l3.ReadSharedReq_accesses::cpu.inst          353                       # number of ReadSharedReq accesses(hits+misses)
system.l3.ReadSharedReq_accesses::cpu.data       216590                       # number of ReadSharedReq accesses(hits+misses)
system.l3.ReadSharedReq_accesses::total        216943                       # number of ReadSharedReq accesses(hits+misses)
system.l3.demand_accesses::cpu.inst               353                       # number of demand (read+write) accesses
system.l3.demand_accesses::cpu.data            248403                       # number of demand (read+write) accesses
system.l3.demand_accesses::total               248756                       # number of demand (read+write) accesses
system.l3.overall_accesses::cpu.inst              353                       # number of overall (read+write) accesses
system.l3.overall_accesses::cpu.data           248403                       # number of overall (read+write) accesses
system.l3.overall_accesses::total              248756                       # number of overall (read+write) accesses
system.l3.ReadExReq_miss_rate::cpu.data      0.987961                       # miss rate for ReadExReq accesses
system.l3.ReadExReq_miss_rate::total         0.987961                       # miss rate for ReadExReq accesses
system.l3.ReadSharedReq_miss_rate::cpu.inst            1                       # miss rate for ReadSharedReq accesses
system.l3.ReadSharedReq_miss_rate::cpu.data     0.393767                       # miss rate for ReadSharedReq accesses
system.l3.ReadSharedReq_miss_rate::total     0.394753                       # miss rate for ReadSharedReq accesses
system.l3.demand_miss_rate::cpu.inst                1                       # miss rate for demand accesses
system.l3.demand_miss_rate::cpu.data         0.469866                       # miss rate for demand accesses
system.l3.demand_miss_rate::total            0.470618                       # miss rate for demand accesses
system.l3.overall_miss_rate::cpu.inst               1                       # miss rate for overall accesses
system.l3.overall_miss_rate::cpu.data        0.469866                       # miss rate for overall accesses
system.l3.overall_miss_rate::total           0.470618                       # miss rate for overall accesses
system.l3.ReadExReq_avg_miss_latency::cpu.data 193909.545021                       # average ReadExReq miss latency
system.l3.ReadExReq_avg_miss_latency::total 193909.545021                       # average ReadExReq miss latency
system.l3.ReadSharedReq_avg_miss_latency::cpu.inst 150616.147309                       # average ReadSharedReq miss latency
system.l3.ReadSharedReq_avg_miss_latency::cpu.data 384244.465680                       # average ReadSharedReq miss latency
system.l3.ReadSharedReq_avg_miss_latency::total 383281.460550                       # average ReadSharedReq miss latency
system.l3.demand_avg_miss_latency::cpu.inst 150616.147309                       # average overall miss latency
system.l3.demand_avg_miss_latency::cpu.data 332989.911409                       # average overall miss latency
system.l3.demand_avg_miss_latency::total 332439.996925                       # average overall miss latency
system.l3.overall_avg_miss_latency::cpu.inst 150616.147309                       # average overall miss latency
system.l3.overall_avg_miss_latency::cpu.data 332989.911409                       # average overall miss latency
system.l3.overall_avg_miss_latency::total 332439.996925                       # average overall miss latency
system.l3.blocked_cycles::no_mshrs                  0                       # number of cycles access was blocked
system.l3.blocked_cycles::no_targets                0                       # number of cycles access was blocked
system.l3.blocked::no_mshrs                         0                       # number of cycles access was blocked
system.l3.blocked::no_targets                       0                       # number of cycles access was blocked
system.l3.avg_blocked_cycles::no_mshrs            nan                       # average number of cycles each access was blocked
system.l3.avg_blocked_cycles::no_targets          nan                       # average number of cycles each access was blocked
system.l3.writebacks::writebacks                98190                       # number of writebacks
system.l3.writebacks::total                     98190                       # number of writebacks
system.l3.ReadExReq_mshr_misses::cpu.data        31430                       # number of ReadExReq MSHR misses
system.l3.ReadExReq_mshr_misses::total          31430                       # number of ReadExReq MSHR misses
system.l3.ReadSharedReq_mshr_misses::cpu.inst          353                       # number of ReadSharedReq MSHR misses
system.l3.ReadSharedReq_mshr_misses::cpu.data        85286                       # number of ReadSharedReq MSHR misses
system.l3.ReadSharedReq_mshr_misses::total        85639                       # number of ReadSharedReq MSHR misses
system.l3.demand_mshr_misses::cpu.inst            353                       # number of demand (read+write) MSHR misses
system.l3.demand_mshr_misses::cpu.data         116716                       # number of demand (read+write) MSHR misses
system.l3.demand_mshr_misses::total            117069                       # number of demand (read+write) MSHR misses
system.l3.overall_mshr_misses::cpu.inst           353                       # number of overall MSHR misses
system.l3.overall_mshr_misses::cpu.data        116716                       # number of overall MSHR misses
system.l3.overall_mshr_misses::total           117069                       # number of overall MSHR misses
system.l3.ReadExReq_mshr_miss_latency::cpu.data   5780277000                       # number of ReadExReq MSHR miss cycles
system.l3.ReadExReq_mshr_miss_latency::total   5780277000                       # number of ReadExReq MSHR miss cycles
system.l3.ReadSharedReq_mshr_miss_latency::cpu.inst     49637500                       # number of ReadSharedReq MSHR miss cycles
system.l3.ReadSharedReq_mshr_miss_latency::cpu.data  31917813500                       # number of ReadSharedReq MSHR miss cycles
system.l3.ReadSharedReq_mshr_miss_latency::total  31967451000                       # number of ReadSharedReq MSHR miss cycles
system.l3.demand_mshr_miss_latency::cpu.inst     49637500                       # number of demand (read+write) MSHR miss cycles
system.l3.demand_mshr_miss_latency::cpu.data  37698090500                       # number of demand (read+write) MSHR miss cycles
system.l3.demand_mshr_miss_latency::total  37747728000                       # number of demand (read+write) MSHR miss cycles
system.l3.overall_mshr_miss_latency::cpu.inst     49637500                       # number of overall MSHR miss cycles
system.l3.overall_mshr_miss_latency::cpu.data  37698090500                       # number of overall MSHR miss cycles
system.l3.overall_mshr_miss_latency::total  37747728000                       # number of overall MSHR miss cycles
system.l3.ReadExReq_mshr_miss_rate::cpu.data     0.987961                       # mshr miss rate for ReadExReq accesses
system.l3.ReadExReq_mshr_miss_rate::total     0.987961                       # mshr miss rate for ReadExReq accesses
system.l3.ReadSharedReq_mshr_miss_rate::cpu.inst            1                       # mshr miss rate for ReadSharedReq accesses
system.l3.ReadSharedReq_mshr_miss_rate::cpu.data     0.393767                       # mshr miss rate for ReadSharedReq accesses
system.l3.ReadSharedReq_mshr_miss_rate::total     0.394753                       # mshr miss rate for ReadSharedReq accesses
system.l3.demand_mshr_miss_rate::cpu.inst            1                       # mshr miss rate for demand accesses
system.l3.demand_mshr_miss_rate::cpu.data     0.469866                       # mshr miss rate for demand accesses
system.l3.demand_mshr_miss_rate::total       0.470618                       # mshr miss rate for demand accesses
system.l3.overall_mshr_miss_rate::cpu.inst            1                       # mshr miss rate for overall accesses
system.l3.overall_mshr_miss_rate::cpu.data     0.469866                       # mshr miss rate for overall accesses
system.l3.overall_mshr_miss_rate::total      0.470618                       # mshr miss rate for overall accesses
system.l3.ReadExReq_avg_mshr_miss_latency::cpu.data 183909.545021                       # average ReadExReq mshr miss latency
system.l3.ReadExReq_avg_mshr_miss_latency::total 183909.545021                       # average ReadExReq mshr miss latency
system.l3.ReadSharedReq_avg_mshr_miss_latency::cpu.inst 140616.147309                       # average ReadSharedReq mshr miss latency
system.l3.ReadSharedReq_avg_mshr_miss_latency::cpu.data 374244.465680                       # average ReadSharedReq mshr miss latency
system.l3.ReadSharedReq_avg_mshr_miss_latency::total 373281.460550                       # average ReadSharedReq mshr miss latency
system.l3.demand_avg_mshr_miss_latency::cpu.inst 140616.147309                       # average overall mshr miss latency
system.l3.demand_avg_mshr_miss_latency::cpu.data 322989.911409                       # average overall mshr miss latency
system.l3.demand_avg_mshr_miss_latency::total 322439.996925                       # average overall mshr miss latency
system.l3.overall_avg_mshr_miss_latency::cpu.inst 140616.147309                       # average overall mshr miss latency
system.l3.overall_avg_mshr_miss_latency::cpu.data 322989.911409                       # average overall mshr miss latency
system.l3.overall_avg_mshr_miss_latency::total 322439.996925                       # average overall mshr miss latency
system.l3.replacements                         100696                       # number of replacements
system.membus.snoop_filter.tot_requests        217474                       # Total number of requests made to the snoop filter.
system.membus.snoop_filter.hit_single_requests       100405                       # Number of requests hitting in the snoop filter with a single holder of the requested data.
system.membus.snoop_filter.hit_multi_requests            0                       # Number of requests hitting in the snoop filter with multiple (>1) holders of the requested data.
system.membus.snoop_filter.tot_snoops               0                       # Total number of snoops made to the snoop filter.
system.membus.snoop_filter.hit_single_snoops            0                       # Number of snoops hitting in the snoop filter with a single holder of the requested data.
system.membus.snoop_filter.hit_multi_snoops            0                       # Number of snoops hitting in the snoop filter with multiple (>1) holders of the requested data.
system.membus.pwrStateResidencyTicks::UNDEFINED 533566784000                       # Cumulative time (in ticks) in various power states
system.membus.trans_dist::ReadResp              85639                       # Transaction distribution
system.membus.trans_dist::WritebackDirty        98190                       # Transaction distribution
system.membus.trans_dist::CleanEvict             2215                       # Transaction distribution
system.membus.trans_dist::ReadExReq             31430                       # Transaction distribution
system.membus.trans_dist::ReadExResp            31430                       # Transaction distribution
system.membus.trans_dist::ReadSharedReq         85639                       # Transaction distribution
system.membus.pkt_count_system.l3.mem_side::system.mem_ctrls.port       334543                       # Packet count per connected master and slave (bytes)
system.membus.pkt_count_system.l3.mem_side::total       334543                       # Packet count per connected master and slave (bytes)
system.membus.pkt_count::total                 334543                       # Packet count per connected master and slave (bytes)
system.membus.pkt_size_system.l3.mem_side::system.mem_ctrls.port     13776576                       # Cumulative packet size per connected master and slave (bytes)
system.membus.pkt_size_system.l3.mem_side::total     13776576                       # Cumulative packet size per connected master and slave (bytes)
system.membus.pkt_size::total                13776576                       # Cumulative packet size per connected master and slave (bytes)
system.membus.snoops                                0                       # Total snoops (count)
system.membus.snoopTraffic                          0                       # Total snoop traffic (bytes)
system.membus.snoop_fanout::samples            117069                       # Request fanout histogram
system.membus.snoop_fanout::mean                    0                       # Request fanout histogram
system.membus.snoop_fanout::stdev                   0                       # Request fanout histogram
system.membus.snoop_fanout::underflows              0      0.00%      0.00% # Request fanout histogram
system.membus.snoop_fanout::0                  117069    100.00%    100.00% # Request fanout histogram
system.membus.snoop_fanout::1                       0      0.00%    100.00% # Request fanout histogram
system.membus.snoop_fanout::overflows               0      0.00%    100.00% # Request fanout histogram
system.membus.snoop_fanout::min_value               0                       # Request fanout histogram
system.membus.snoop_fanout::max_value               0                       # Request fanout histogram
system.membus.snoop_fanout::total              117069                       # Request fanout histogram
system.membus.reqLayer2.occupancy           610237500                       # Layer occupancy (ticks)
system.membus.reqLayer2.utilization               0.1                       # Layer utilization (%)
system.membus.respLayer1.occupancy          585348500                       # Layer occupancy (ticks)
system.membus.respLayer1.utilization              0.1                       # Layer utilization (%)
system.tol2bus.snoop_filter.tot_requests       807768                       # Total number of requests made to the snoop filter.
system.tol2bus.snoop_filter.hit_single_requests       455394                       # Number of requests hitting in the snoop filter with a single holder of the requested data.
system.tol2bus.snoop_filter.hit_multi_requests            0                       # Number of requests hitting in the snoop filter with multiple (>1) holders of the requested data.
system.tol2bus.snoop_filter.tot_snoops            620                       # Total number of snoops made to the snoop filter.
system.tol2bus.snoop_filter.hit_single_snoops          620                       # Number of snoops hitting in the snoop filter with a single holder of the requested data.
system.tol2bus.snoop_filter.hit_multi_snoops            0                       # Number of snoops hitting in the snoop filter with multiple (>1) holders of the requested data.
system.tol2bus.pwrStateResidencyTicks::UNDEFINED 533566784000                       # Cumulative time (in ticks) in various power states
system.tol2bus.trans_dist::ReadResp            319125                       # Transaction distribution
system.tol2bus.trans_dist::WritebackDirty       554787                       # Transaction distribution
system.tol2bus.trans_dist::WritebackClean           45                       # Transaction distribution
system.tol2bus.trans_dist::CleanEvict           43780                       # Transaction distribution
system.tol2bus.trans_dist::UpgradeReq          103840                       # Transaction distribution
system.tol2bus.trans_dist::UpgradeResp         103840                       # Transaction distribution
system.tol2bus.trans_dist::ReadExReq            33249                       # Transaction distribution
system.tol2bus.trans_dist::ReadExResp           33249                       # Transaction distribution
system.tol2bus.trans_dist::ReadCleanReq           353                       # Transaction distribution
system.tol2bus.trans_dist::ReadSharedReq       318772                       # Transaction distribution
system.tol2bus.pkt_count_system.cpu.icache.mem_side::system.l2.cpu_side          751                       # Packet count per connected master and slave (bytes)
system.tol2bus.pkt_count_system.cpu.dcache.mem_side::system.l2.cpu_side      1263231                       # Packet count per connected master and slave (bytes)
system.tol2bus.pkt_count::total               1263982                       # Packet count per connected master and slave (bytes)
system.tol2bus.pkt_size_system.cpu.icache.mem_side::system.l2.cpu_side        25472                       # Cumulative packet size per connected master and slave (bytes)
system.tol2bus.pkt_size_system.cpu.dcache.mem_side::system.l2.cpu_side     43075264                       # Cumulative packet size per connected master and slave (bytes)
system.tol2bus.pkt_size::total               43100736                       # Cumulative packet size per connected master and slave (bytes)
system.tol2bus.snoops                          247058                       # Total snoops (count)
system.tol2bus.snoopTraffic                  14960448                       # Total snoop traffic (bytes)
system.tol2bus.snoop_fanout::samples           703272                       # Request fanout histogram
system.tol2bus.snoop_fanout::mean            0.000882                       # Request fanout histogram
system.tol2bus.snoop_fanout::stdev           0.029679                       # Request fanout histogram
system.tol2bus.snoop_fanout::underflows             0      0.00%      0.00% # Request fanout histogram
system.tol2bus.snoop_fanout::0                 702652     99.91%     99.91% # Request fanout histogram
system.tol2bus.snoop_fanout::1                    620      0.09%    100.00% # Request fanout histogram
system.tol2bus.snoop_fanout::2                      0      0.00%    100.00% # Request fanout histogram
system.tol2bus.snoop_fanout::3                      0      0.00%    100.00% # Request fanout histogram
system.tol2bus.snoop_fanout::4                      0      0.00%    100.00% # Request fanout histogram
system.tol2bus.snoop_fanout::overflows              0      0.00%    100.00% # Request fanout histogram
system.tol2bus.snoop_fanout::min_value              0                       # Request fanout histogram
system.tol2bus.snoop_fanout::max_value              1                       # Request fanout histogram
system.tol2bus.snoop_fanout::total             703272                       # Request fanout histogram
system.tol2bus.reqLayer0.occupancy          724959000                       # Layer occupancy (ticks)
system.tol2bus.reqLayer0.utilization              0.1                       # Layer utilization (%)
system.tol2bus.respLayer0.occupancy            529500                       # Layer occupancy (ticks)
system.tol2bus.respLayer0.utilization             0.0                       # Layer utilization (%)
system.tol2bus.respLayer1.occupancy         579951500                       # Layer occupancy (ticks)
system.tol2bus.respLayer1.utilization             0.1                       # Layer utilization (%)
system.tol3bus.snoop_filter.tot_requests       495194                       # Total number of requests made to the snoop filter.
system.tol3bus.snoop_filter.hit_single_requests       246438                       # Number of requests hitting in the snoop filter with a single holder of the requested data.
system.tol3bus.snoop_filter.hit_multi_requests            0                       # Number of requests hitting in the snoop filter with multiple (>1) holders of the requested data.
system.tol3bus.snoop_filter.tot_snoops            291                       # Total number of snoops made to the snoop filter.
system.tol3bus.snoop_filter.hit_single_snoops          291                       # Number of snoops hitting in the snoop filter with a single holder of the requested data.
system.tol3bus.snoop_filter.hit_multi_snoops            0                       # Number of snoops hitting in the snoop filter with multiple (>1) holders of the requested data.
system.tol3bus.pwrStateResidencyTicks::UNDEFINED 533566784000                       # Cumulative time (in ticks) in various power states
system.tol3bus.trans_dist::ReadResp            216943                       # Transaction distribution
system.tol3bus.trans_dist::WritebackDirty       331947                       # Transaction distribution
system.tol3bus.trans_dist::CleanEvict           15187                       # Transaction distribution
system.tol3bus.trans_dist::ReadExReq            31813                       # Transaction distribution
system.tol3bus.trans_dist::ReadExResp           31813                       # Transaction distribution
system.tol3bus.trans_dist::ReadSharedReq       216943                       # Transaction distribution
system.tol3bus.pkt_count_system.l2.mem_side::system.l3.cpu_side       743950                       # Packet count per connected master and slave (bytes)
system.tol3bus.pkt_size_system.l2.mem_side::system.l3.cpu_side     30880832                       # Cumulative packet size per connected master and slave (bytes)
system.tol3bus.snoops                          100696                       # Total snoops (count)
system.tol3bus.snoopTraffic                   6284160                       # Total snoop traffic (bytes)
system.tol3bus.snoop_fanout::samples           349452                       # Request fanout histogram
system.tol3bus.snoop_fanout::mean            0.000833                       # Request fanout histogram
system.tol3bus.snoop_fanout::stdev           0.028845                       # Request fanout histogram
system.tol3bus.snoop_fanout::underflows             0      0.00%      0.00% # Request fanout histogram
system.tol3bus.snoop_fanout::0                 349161     99.92%     99.92% # Request fanout histogram
system.tol3bus.snoop_fanout::1                    291      0.08%    100.00% # Request fanout histogram
system.tol3bus.snoop_fanout::overflows              0      0.00%    100.00% # Request fanout histogram
system.tol3bus.snoop_fanout::min_value              0                       # Request fanout histogram
system.tol3bus.snoop_fanout::max_value              1                       # Request fanout histogram
system.tol3bus.snoop_fanout::total             349452                       # Request fanout histogram
system.tol3bus.reqLayer0.occupancy          481354000                       # Layer occupancy (ticks)
system.tol3bus.reqLayer0.utilization              0.1                       # Layer utilization (%)
system.tol3bus.respLayer0.occupancy         373134000                       # Layer occupancy (ticks)
system.tol3bus.respLayer0.utilization             0.1                       # Layer utilization (%)

---------- End Simulation Statistics   ----------
